# File generated by Flopy version 3.3.5 on 12/07/2022 at 13:22:42.
BEGIN options
  MEMORY_PRINT_OPTION  all
END options

BEGIN timing
  TDIS6  TRANSIENT.tdis
END timing

BEGIN models
  gwf6  TRANSIENT.nam  TRANSIENT
END models

BEGIN exchanges
END exchanges

BEGIN solutiongroup  1
  ims6  TRANSIENT.ims  TRANSIENT
END solutiongroup  1

