# File generated by Flopy version 3.3.5 on 12/07/2022 at 13:22:42.
BEGIN options
  AUTO_FLOW_REDUCE       0.10000000
END options

BEGIN dimensions
  MAXBOUND  720
END dimensions

BEGIN period  1
  1 2 11       0.00000000
  1 2 12       0.00000000
  1 2 13       0.00000000
  1 2 14       0.00000000
  1 3 9       0.00000000
  1 3 11       0.00000000
  1 3 12       0.00000000
  1 3 13       0.00000000
  1 3 14       0.00000000
  1 3 15       0.00000000
  1 3 16       0.00000000
  1 3 17       0.00000000
  1 3 18       0.00000000
  1 4 5       0.00000000
  1 4 6       0.00000000
  1 4 7       0.00000000
  1 4 8       0.00000000
  1 4 9       0.00000000
  1 4 10       0.00000000
  1 4 11       0.00000000
  1 4 12       0.00000000
  1 4 13       0.00000000
  1 4 14       0.00000000
  1 4 15       0.00000000
  1 4 16       0.00000000
  1 4 17       0.00000000
  1 4 18       0.00000000
  1 4 19       0.00000000
  1 4 20       0.00000000
  1 5 4       0.00000000
  1 5 5       0.00000000
  1 5 6       0.00000000
  1 5 7       0.00000000
  1 5 8       0.00000000
  1 5 9       0.00000000
  1 5 10       0.00000000
  1 5 11       0.00000000
  1 5 12       0.00000000
  1 5 13       0.00000000
  1 5 14       0.00000000
  1 5 15       0.00000000
  1 5 16       0.00000000
  1 5 17       0.00000000
  1 5 18       0.00000000
  1 5 19       0.00000000
  1 5 20       0.00000000
  1 5 21       0.00000000
  1 6 4       0.00000000
  1 6 5       0.00000000
  1 6 6       0.00000000
  1 6 7       0.00000000
  1 6 8       0.00000000
  1 6 9       0.00000000
  1 6 10       0.00000000
  1 6 11       0.00000000
  1 6 12       0.00000000
  1 6 13       0.00000000
  1 6 14       0.00000000
  1 6 15       0.00000000
  1 6 16       0.00000000
  1 6 17       0.00000000
  1 6 18       0.00000000
  1 6 19       0.00000000
  1 6 20       0.00000000
  1 6 21       0.00000000
  1 6 22       0.00000000
  1 6 23       0.00000000
  1 7 2       0.00000000
  1 7 3       0.00000000
  1 7 4       0.00000000
  1 7 5       0.00000000
  1 7 6       0.00000000
  1 7 7       0.00000000
  1 7 8       0.00000000
  1 7 9       0.00000000
  1 7 10       0.00000000
  1 7 11       0.00000000
  1 7 12       0.00000000
  1 7 13       0.00000000
  1 7 14       0.00000000
  1 7 15       0.00000000
  1 7 16       0.00000000
  1 7 17       0.00000000
  1 7 18       0.00000000
  1 7 19       0.00000000
  1 7 20       0.00000000
  1 7 21       0.00000000
  1 7 22       0.00000000
  1 7 23       0.00000000
  1 8 1       0.00000000
  1 8 2       0.00000000
  1 8 3       0.00000000
  1 8 4       0.00000000
  1 8 5       0.00000000
  1 8 6       0.00000000
  1 8 7       0.00000000
  1 8 8       0.00000000
  1 8 9       0.00000000
  1 8 10       0.00000000
  1 8 11       0.00000000
  1 8 12       0.00000000
  1 8 13       0.00000000
  1 8 14       0.00000000
  1 8 15       0.00000000
  1 8 16       0.00000000
  1 8 17       0.00000000
  1 8 18       0.00000000
  1 8 19       0.00000000
  1 8 20       0.00000000
  1 8 21       0.00000000
  1 8 22       0.00000000
  1 8 23       0.00000000
  1 8 24       0.00000000
  1 9 1       0.00000000
  1 9 2       0.00000000
  1 9 3       0.00000000
  1 9 4       0.00000000
  1 9 5       0.00000000
  1 9 6       0.00000000
  1 9 7       0.00000000
  1 9 8       0.00000000
  1 9 9       0.00000000
  1 9 10       0.00000000
  1 9 11       0.00000000
  1 9 12       0.00000000
  1 9 13       0.00000000
  1 9 14       0.00000000
  1 9 15       0.00000000
  1 9 16       0.00000000
  1 9 17       0.00000000
  1 9 18       0.00000000
  1 9 19       0.00000000
  1 9 20       0.00000000
  1 9 21       0.00000000
  1 9 22       0.00000000
  1 9 23       0.00000000
  1 9 24       0.00000000
  1 9 25       0.00000000
  1 9 26       0.00000000
  1 9 27       0.00000000
  1 10 2       0.00000000
  1 10 3       0.00000000
  1 10 4       0.00000000
  1 10 5       0.00000000
  1 10 6       0.00000000
  1 10 7       0.00000000
  1 10 8       0.00000000
  1 10 9       0.00000000
  1 10 10       0.00000000
  1 10 11       0.00000000
  1 10 12       0.00000000
  1 10 13       0.00000000
  1 10 14       0.00000000
  1 10 15       0.00000000
  1 10 16       0.00000000
  1 10 17       0.00000000
  1 10 18       0.00000000
  1 10 19       0.00000000
  1 10 20       0.00000000
  1 10 21       0.00000000
  1 10 22       0.00000000
  1 10 23       0.00000000
  1 10 24       0.00000000
  1 10 25       0.00000000
  1 10 26       0.00000000
  1 10 27       0.00000000
  1 10 28       0.00000000
  1 11 2       0.00000000
  1 11 3       0.00000000
  1 11 4       0.00000000
  1 11 5       0.00000000
  1 11 6       0.00000000
  1 11 7       0.00000000
  1 11 8       0.00000000
  1 11 9       0.00000000
  1 11 10       0.00000000
  1 11 11       0.00000000
  1 11 12       0.00000000
  1 11 13       0.00000000
  1 11 14       0.00000000
  1 11 15       0.00000000
  1 11 16       0.00000000
  1 11 17       0.00000000
  1 11 18       0.00000000
  1 11 19       0.00000000
  1 11 20       0.00000000
  1 11 21       0.00000000
  1 11 22       0.00000000
  1 11 23       0.00000000
  1 11 24       0.00000000
  1 11 25       0.00000000
  1 11 26       0.00000000
  1 11 27       0.00000000
  1 11 28       0.00000000
  1 11 29       0.00000000
  1 11 30       0.00000000
  1 12 2       0.00000000
  1 12 3       0.00000000
  1 12 4       0.00000000
  1 12 5       0.00000000
  1 12 6       0.00000000
  1 12 7       0.00000000
  1 12 8       0.00000000
  1 12 9       0.00000000
  1 12 10       0.00000000
  1 12 11       0.00000000
  1 12 12       0.00000000
  1 12 13       0.00000000
  1 12 14       0.00000000
  1 12 15       0.00000000
  1 12 16       0.00000000
  1 12 17       0.00000000
  1 12 18       0.00000000
  1 12 19       0.00000000
  1 12 20       0.00000000
  1 12 21       0.00000000
  1 12 22       0.00000000
  1 12 23       0.00000000
  1 12 24       0.00000000
  1 12 25       0.00000000
  1 12 26       0.00000000
  1 12 27       0.00000000
  1 12 28       0.00000000
  1 12 29       0.00000000
  1 12 30       0.00000000
  1 12 31       0.00000000
  1 12 32       0.00000000
  1 13 1       0.00000000
  1 13 2       0.00000000
  1 13 3       0.00000000
  1 13 4       0.00000000
  1 13 5       0.00000000
  1 13 6       0.00000000
  1 13 7       0.00000000
  1 13 8       0.00000000
  1 13 9       0.00000000
  1 13 10       0.00000000
  1 13 11       0.00000000
  1 13 12       0.00000000
  1 13 13       0.00000000
  1 13 14       0.00000000
  1 13 15       0.00000000
  1 13 16       0.00000000
  1 13 17       0.00000000
  1 13 18       0.00000000
  1 13 19       0.00000000
  1 13 20       0.00000000
  1 13 21       0.00000000
  1 13 22       0.00000000
  1 13 23       0.00000000
  1 13 24       0.00000000
  1 13 25       0.00000000
  1 13 26       0.00000000
  1 13 27       0.00000000
  1 13 28       0.00000000
  1 13 29       0.00000000
  1 13 30       0.00000000
  1 13 31       0.00000000
  1 13 32       0.00000000
  1 13 33       0.00000000
  1 13 34       0.00000000
  1 14 1       0.00000000
  1 14 2       0.00000000
  1 14 3       0.00000000
  1 14 4       0.00000000
  1 14 5       0.00000000
  1 14 6       0.00000000
  1 14 7       0.00000000
  1 14 8       0.00000000
  1 14 9       0.00000000
  1 14 10       0.00000000
  1 14 11       0.00000000
  1 14 12       0.00000000
  1 14 13       0.00000000
  1 14 14       0.00000000
  1 14 15       0.00000000
  1 14 16       0.00000000
  1 14 17       0.00000000
  1 14 18       0.00000000
  1 14 19       0.00000000
  1 14 20       0.00000000
  1 14 21       0.00000000
  1 14 22       0.00000000
  1 14 23       0.00000000
  1 14 24       0.00000000
  1 14 25       0.00000000
  1 14 26       0.00000000
  1 14 27       0.00000000
  1 14 28       0.00000000
  1 14 29       0.00000000
  1 14 30       0.00000000
  1 14 31       0.00000000
  1 14 32       0.00000000
  1 14 33       0.00000000
  1 14 34       0.00000000
  1 14 35       0.00000000
  1 14 36       0.00000000
  1 14 37       0.00000000
  1 14 40       0.00000000
  1 14 41       0.00000000
  1 15 1       0.00000000
  1 15 2       0.00000000
  1 15 3       0.00000000
  1 15 4       0.00000000
  1 15 5       0.00000000
  1 15 6       0.00000000
  1 15 7       0.00000000
  1 15 8       0.00000000
  1 15 9       0.00000000
  1 15 10       0.00000000
  1 15 11       0.00000000
  1 15 12       0.00000000
  1 15 13       0.00000000
  1 15 14       0.00000000
  1 15 15       0.00000000
  1 15 16       0.00000000
  1 15 17       0.00000000
  1 15 18       0.00000000
  1 15 19       0.00000000
  1 15 20       0.00000000
  1 15 21       0.00000000
  1 15 22       0.00000000
  1 15 23       0.00000000
  1 15 24       0.00000000
  1 15 25       0.00000000
  1 15 26       0.00000000
  1 15 27       0.00000000
  1 15 28       0.00000000
  1 15 29       0.00000000
  1 15 30       0.00000000
  1 15 31       0.00000000
  1 15 32       0.00000000
  1 15 33       0.00000000
  1 15 34       0.00000000
  1 15 35       0.00000000
  1 15 36       0.00000000
  1 15 37       0.00000000
  1 15 38       0.00000000
  1 15 39       0.00000000
  1 15 40       0.00000000
  1 15 41       0.00000000
  1 15 42       0.00000000
  1 15 43       0.00000000
  1 15 44       0.00000000
  1 16 1       0.00000000
  1 16 2       0.00000000
  1 16 3       0.00000000
  1 16 4       0.00000000
  1 16 5       0.00000000
  1 16 6       0.00000000
  1 16 7       0.00000000
  1 16 8       0.00000000
  1 16 9       0.00000000
  1 16 10       0.00000000
  1 16 11       0.00000000
  1 16 12       0.00000000
  1 16 13       0.00000000
  1 16 14       0.00000000
  1 16 15       0.00000000
  1 16 16       0.00000000
  1 16 17       0.00000000
  1 16 18       0.00000000
  1 16 19       0.00000000
  1 16 20       0.00000000
  1 16 21       0.00000000
  1 16 22       0.00000000
  1 16 23       0.00000000
  1 16 24       0.00000000
  1 16 25       0.00000000
  1 16 26       0.00000000
  1 16 27       0.00000000
  1 16 28       0.00000000
  1 16 29       0.00000000
  1 16 30       0.00000000
  1 16 31       0.00000000
  1 16 32       0.00000000
  1 16 33       0.00000000
  1 16 34       0.00000000
  1 16 35       0.00000000
  1 16 36       0.00000000
  1 16 37       0.00000000
  1 16 38       0.00000000
  1 16 39       0.00000000
  1 16 40       0.00000000
  1 16 41       0.00000000
  1 16 42       0.00000000
  1 16 43       0.00000000
  1 16 44       0.00000000
  1 16 45       0.00000000
  1 17 3       0.00000000
  1 17 4       0.00000000
  1 17 13       0.00000000
  1 17 14       0.00000000
  1 17 15       0.00000000
  1 17 16       0.00000000
  1 17 17       0.00000000
  1 17 18       0.00000000
  1 17 19       0.00000000
  1 17 20       0.00000000
  1 17 21       0.00000000
  1 17 22       0.00000000
  1 17 23       0.00000000
  1 17 24       0.00000000
  1 17 25       0.00000000
  1 17 26       0.00000000
  1 17 27       0.00000000
  1 17 28       0.00000000
  1 17 29       0.00000000
  1 17 30       0.00000000
  1 17 31       0.00000000
  1 17 32       0.00000000
  1 17 33       0.00000000
  1 17 34       0.00000000
  1 17 35       0.00000000
  1 17 36       0.00000000
  1 17 37       0.00000000
  1 17 38       0.00000000
  1 17 39       0.00000000
  1 17 40       0.00000000
  1 17 41       0.00000000
  1 17 42       0.00000000
  1 17 43       0.00000000
  1 17 44       0.00000000
  1 17 45       0.00000000
  1 17 46       0.00000000
  1 17 47       0.00000000
  1 17 48       0.00000000
  1 17 49       0.00000000
  1 18 16       0.00000000
  1 18 17       0.00000000
  1 18 18       0.00000000
  1 18 19       0.00000000
  1 18 20       0.00000000
  1 18 21       0.00000000
  1 18 22       0.00000000
  1 18 23       0.00000000
  1 18 24       0.00000000
  1 18 25       0.00000000
  1 18 26       0.00000000
  1 18 27       0.00000000
  1 18 28       0.00000000
  1 18 29       0.00000000
  1 18 30       0.00000000
  1 18 31       0.00000000
  1 18 32       0.00000000
  1 18 33       0.00000000
  1 18 34       0.00000000
  1 18 35       0.00000000
  1 18 36       0.00000000
  1 18 37       0.00000000
  1 18 38       0.00000000
  1 18 39       0.00000000
  1 18 40       0.00000000
  1 18 41       0.00000000
  1 18 42       0.00000000
  1 18 43       0.00000000
  1 18 44       0.00000000
  1 18 45       0.00000000
  1 18 46       0.00000000
  1 18 47       0.00000000
  1 18 48       0.00000000
  1 18 49       0.00000000
  1 19 17       0.00000000
  1 19 18       0.00000000
  1 19 19       0.00000000
  1 19 20       0.00000000
  1 19 21       0.00000000
  1 19 22       0.00000000
  1 19 23       0.00000000
  1 19 24       0.00000000
  1 19 25       0.00000000
  1 19 26       0.00000000
  1 19 27       0.00000000
  1 19 28       0.00000000
  1 19 29       0.00000000
  1 19 30       0.00000000
  1 19 31       0.00000000
  1 19 32       0.00000000
  1 19 33       0.00000000
  1 19 34       0.00000000
  1 19 35       0.00000000
  1 19 36       0.00000000
  1 19 37       0.00000000
  1 19 38       0.00000000
  1 19 39       0.00000000
  1 19 40       0.00000000
  1 19 41       0.00000000
  1 19 42       0.00000000
  1 19 43       0.00000000
  1 19 44       0.00000000
  1 19 45       0.00000000
  1 19 46       0.00000000
  1 19 47       0.00000000
  1 19 48       0.00000000
  1 19 49       0.00000000
  1 19 50       0.00000000
  1 20 17       0.00000000
  1 20 18       0.00000000
  1 20 19       0.00000000
  1 20 20       0.00000000
  1 20 21       0.00000000
  1 20 22       0.00000000
  1 20 23       0.00000000
  1 20 24       0.00000000
  1 20 25       0.00000000
  1 20 26       0.00000000
  1 20 27       0.00000000
  1 20 28       0.00000000
  1 20 29       0.00000000
  1 20 30       0.00000000
  1 20 31       0.00000000
  1 20 32       0.00000000
  1 20 33       0.00000000
  1 20 34       0.00000000
  1 20 35       0.00000000
  1 20 36       0.00000000
  1 20 37       0.00000000
  1 20 38       0.00000000
  1 20 39       0.00000000
  1 20 40       0.00000000
  1 20 41       0.00000000
  1 20 42       0.00000000
  1 20 43       0.00000000
  1 20 44       0.00000000
  1 20 45       0.00000000
  1 20 46       0.00000000
  1 20 47       0.00000000
  1 20 48       0.00000000
  1 20 49       0.00000000
  1 20 50       0.00000000
  1 20 51       0.00000000
  1 21 21       0.00000000
  1 21 22       0.00000000
  1 21 23       0.00000000
  1 21 24       0.00000000
  1 21 25       0.00000000
  1 21 26       0.00000000
  1 21 27       0.00000000
  1 21 28       0.00000000
  1 21 29       0.00000000
  1 21 30       0.00000000
  1 21 31       0.00000000
  1 21 32       0.00000000
  1 21 33       0.00000000
  1 21 34       0.00000000
  1 21 35       0.00000000
  1 21 36       0.00000000
  1 21 37       0.00000000
  1 21 38       0.00000000
  1 21 39       0.00000000
  1 21 40       0.00000000
  1 21 41       0.00000000
  1 21 42       0.00000000
  1 21 43       0.00000000
  1 21 44       0.00000000
  1 21 45       0.00000000
  1 21 46       0.00000000
  1 21 47       0.00000000
  1 21 48       0.00000000
  1 21 49       0.00000000
  1 21 50       0.00000000
  1 21 51       0.00000000
  1 22 24       0.00000000
  1 22 25       0.00000000
  1 22 26       0.00000000
  1 22 27       0.00000000
  1 22 28       0.00000000
  1 22 29       0.00000000
  1 22 30       0.00000000
  1 22 31       0.00000000
  1 22 32       0.00000000
  1 22 33       0.00000000
  1 22 34       0.00000000
  1 22 35       0.00000000
  1 22 36       0.00000000
  1 22 37       0.00000000
  1 22 38       0.00000000
  1 22 39       0.00000000
  1 22 40       0.00000000
  1 22 41       0.00000000
  1 22 42       0.00000000
  1 22 43       0.00000000
  1 22 44       0.00000000
  1 22 45       0.00000000
  1 22 46       0.00000000
  1 22 47       0.00000000
  1 22 48       0.00000000
  1 22 49       0.00000000
  1 22 50       0.00000000
  1 22 51       0.00000000
  1 23 25       0.00000000
  1 23 26       0.00000000
  1 23 27       0.00000000
  1 23 28       0.00000000
  1 23 29       0.00000000
  1 23 30       0.00000000
  1 23 31       0.00000000
  1 23 32       0.00000000
  1 23 33       0.00000000
  1 23 34       0.00000000
  1 23 35       0.00000000
  1 23 36       0.00000000
  1 23 37       0.00000000
  1 23 38       0.00000000
  1 23 39       0.00000000
  1 23 40       0.00000000
  1 23 41       0.00000000
  1 23 42       0.00000000
  1 23 43       0.00000000
  1 23 44       0.00000000
  1 23 45       0.00000000
  1 23 46       0.00000000
  1 23 47       0.00000000
  1 23 48       0.00000000
  1 23 49       0.00000000
  1 23 50       0.00000000
  1 23 51       0.00000000
  1 24 27       0.00000000
  1 24 28       0.00000000
  1 24 29       0.00000000
  1 24 30       0.00000000
  1 24 31       0.00000000
  1 24 32       0.00000000
  1 24 33       0.00000000
  1 24 34       0.00000000
  1 24 35       0.00000000
  1 24 36       0.00000000
  1 24 37       0.00000000
  1 24 38       0.00000000
  1 24 39       0.00000000
  1 24 40       0.00000000
  1 24 41       0.00000000
  1 24 42       0.00000000
  1 24 43       0.00000000
  1 24 44       0.00000000
  1 24 45       0.00000000
  1 24 46       0.00000000
  1 24 47       0.00000000
  1 24 48       0.00000000
  1 24 49       0.00000000
  1 24 50       0.00000000
  1 25 29       0.00000000
  1 25 30       0.00000000
  1 25 31       0.00000000
  1 25 32       0.00000000
  1 25 33       0.00000000
  1 25 34       0.00000000
  1 25 35       0.00000000
  1 25 36       0.00000000
  1 25 37       0.00000000
  1 25 38       0.00000000
  1 25 39       0.00000000
  1 25 40       0.00000000
  1 25 41       0.00000000
  1 25 42       0.00000000
  1 25 43       0.00000000
  1 25 44       0.00000000
  1 25 45       0.00000000
  1 25 46       0.00000000
  1 25 47       0.00000000
  1 25 48       0.00000000
  1 25 49       0.00000000
  1 26 29       0.00000000
  1 26 30       0.00000000
  1 26 31       0.00000000
  1 26 32       0.00000000
  1 26 33       0.00000000
  1 26 34       0.00000000
  1 26 35       0.00000000
  1 26 36       0.00000000
  1 26 37       0.00000000
  1 26 38       0.00000000
  1 26 39       0.00000000
  1 26 40       0.00000000
  1 26 41       0.00000000
  1 26 42       0.00000000
  1 26 43       0.00000000
  1 26 44       0.00000000
  1 26 45       0.00000000
  1 26 46       0.00000000
  1 26 47       0.00000000
  1 26 48       0.00000000
  1 26 49       0.00000000
  1 27 31       0.00000000
  1 27 32       0.00000000
  1 27 33       0.00000000
  1 27 34       0.00000000
  1 27 36       0.00000000
  1 27 37       0.00000000
  1 27 38       0.00000000
  1 27 39       0.00000000
  1 27 40       0.00000000
  1 27 41       0.00000000
  1 27 42       0.00000000
  1 27 43       0.00000000
  1 27 44       0.00000000
  1 27 45       0.00000000
  1 27 46       0.00000000
  1 27 47       0.00000000
  1 27 48       0.00000000
  1 27 49       0.00000000
  1 28 37       0.00000000
  1 28 38       0.00000000
  1 28 39       0.00000000
  1 28 40       0.00000000
  1 28 41       0.00000000
  1 28 42       0.00000000
  1 28 43       0.00000000
  1 28 44       0.00000000
  1 28 45       0.00000000
  1 28 46       0.00000000
  1 28 47       0.00000000
  1 29 38       0.00000000
  1 29 39       0.00000000
  1 29 40       0.00000000
  1 29 41       0.00000000
  1 29 42       0.00000000
  1 29 43       0.00000000
  1 29 45       0.00000000
  1 29 46       0.00000000
END period  1

