# File generated by Flopy version 3.3.5 on 12/07/2022 at 13:22:42.
BEGIN options
  SAVE_FLOWS
END options

BEGIN griddata
  icelltype
    CONSTANT  1
  k
    INTERNAL  FACTOR  1.0
         0.86400002       0.86400002       0.86400002       0.86400002       0.86400002       0.86400002       0.86400002       0.86400002       0.86400002       0.86400002       0.86400002       0.86400002       0.86400002       0.86400002       0.86400002       0.86400002       0.86400002       0.86400002       0.86400002       0.86400002       0.86400002       0.86400002       0.86400002       0.86400002       0.86400002       0.86400002       0.86400002       0.86400002       0.86400002       0.86400002       0.86400002       0.86400002       0.86400002       0.86400002       0.86400002       0.86400002       0.86400002       0.86400002       0.86400002       0.86400002       0.86400002       0.86400002       0.86400002       0.86400002       0.86400002       0.86400002       0.86400002       0.86400002       0.86400002       0.86400002       0.86400002
         0.86400002       0.86400002       0.86400002       0.86400002       0.86400002       0.86400002       0.86400002       0.86400002       0.86400002       0.86400002       0.86400002       0.86400002       0.86400002       0.86400002       0.86400002       0.86400002       0.86400002       0.86400002       0.86400002       0.86400002       0.86400002       0.86400002       0.86400002       0.86400002       0.86400002       0.86400002       0.86400002       0.86400002       0.86400002       0.86400002       0.86400002       0.86400002       0.86400002       0.86400002       0.86400002       0.86400002       0.86400002       0.86400002       0.86400002       0.86400002       0.86400002       0.86400002       0.86400002       0.86400002       0.86400002       0.86400002       0.86400002       0.86400002       0.86400002       0.86400002       0.86400002
         0.86400002       0.86400002       0.86400002       0.86400002       0.86400002       0.86400002       0.86400002       0.86400002       0.86400002       0.86400002       0.86400002       0.86400002       0.86400002       0.86400002       0.86400002       0.86400002       0.86400002       0.86400002       0.86400002       0.86400002       0.86400002       0.86400002       0.86400002       0.86400002       0.86400002       0.86400002       0.86400002       0.86400002       0.86400002       0.86400002       0.86400002       0.86400002       0.86400002       0.86400002       0.86400002       0.86400002       0.86400002       0.86400002       0.86400002       0.86400002       0.86400002       0.86400002       0.86400002       0.86400002       0.86400002       0.86400002       0.86400002       0.86400002       0.86400002       0.86400002       0.86400002
         0.86400002       0.86400002       0.86400002       0.86400002       0.86400002       0.86400002       0.86400002       0.86400002       0.86400002       0.86400002       0.86400002       0.86400002       0.86400002       0.86400002       0.86400002       0.86400002       0.86400002       0.86400002       0.86400002       0.86400002       0.86400002       0.86400002       0.86400002       0.86400002       0.86400002       0.86400002       0.86400002       0.86400002       0.86400002       0.86400002       0.86400002       0.86400002       0.86400002       0.86400002       0.86400002       0.86400002       0.86400002       0.86400002       0.86400002       0.86400002       0.86400002       0.86400002       0.86400002       0.86400002       0.86400002       0.86400002       0.86400002       0.86400002       0.86400002       0.86400002       0.86400002
         0.86400002       0.86400002       0.86400002       0.86400002       0.86400002       0.86400002       0.86400002       0.86400002       0.86400002       0.86400002       0.86400002       0.86400002       0.86400002       0.86400002       0.86400002       0.86400002       0.86400002       0.86400002       0.86400002       0.86400002       0.86400002       0.86400002       0.86400002       0.86400002       0.86400002       0.86400002       0.86400002       0.86400002       0.86400002       0.86400002       0.86400002       0.86400002       0.86400002       0.86400002       0.86400002       0.86400002       0.86400002       0.86400002       0.86400002       0.86400002       0.86400002       0.86400002       0.86400002       0.86400002       0.86400002       0.86400002       0.86400002       0.86400002       0.86400002       0.86400002       0.86400002
         0.86400002       0.86400002       0.86400002       0.86400002       0.86400002       0.86400002       0.86400002       0.86400002       0.86400002       0.86400002       0.86400002       0.86400002       0.86400002       0.86400002       0.86400002       0.86400002       0.86400002       0.86400002       0.86400002       0.86400002       0.86400002       0.86400002       0.86400002       0.86400002       0.86400002       0.86400002       0.86400002       0.86400002       0.86400002       0.86400002       0.86400002       0.86400002       0.86400002       0.86400002       0.86400002       0.86400002       0.86400002       0.86400002       0.86400002       0.86400002       0.86400002       0.86400002       0.86400002       0.86400002       0.86400002       0.86400002       0.86400002       0.86400002       0.86400002       0.86400002       0.86400002
         0.86400002       0.86400002       0.86400002       0.86400002       0.86400002       0.86400002       0.86400002       0.86400002       0.86400002       0.86400002       0.86400002       0.86400002       0.86400002       0.86400002       0.86400002       0.86400002       0.86400002       0.86400002       0.86400002       0.86400002       0.86400002       0.86400002       0.86400002       0.86400002       0.86400002       0.86400002       0.86400002       0.86400002       0.86400002       0.86400002       0.86400002       0.86400002       0.86400002       0.86400002       0.86400002       0.86400002       0.86400002       0.86400002       0.86400002       0.86400002       0.86400002       0.86400002       0.86400002       0.86400002       0.86400002       0.86400002       0.86400002       0.86400002       0.86400002       0.86400002       0.86400002
         0.86400002       0.86400002       0.86400002       0.86400002       0.86400002       0.86400002       0.86400002       0.86400002       0.86400002       0.86400002       0.86400002       0.86400002       0.86400002       0.86400002       0.86400002       0.86400002       0.86400002       0.86400002       0.86400002       0.86400002       0.86400002       0.86400002       0.86400002       0.86400002       0.86400002       0.86400002       0.86400002       0.86400002       0.86400002       0.86400002       0.86400002       0.86400002       0.86400002       0.86400002       0.86400002       0.86400002       0.86400002       0.86400002       0.86400002       0.86400002       0.86400002       0.86400002       0.86400002       0.86400002       0.86400002       0.86400002       0.86400002       0.86400002       0.86400002       0.86400002       0.86400002
         0.86400002       0.86400002       0.86400002       0.86400002       0.86400002       0.86400002       0.86400002       0.86400002       0.86400002       0.86400002       0.86400002       0.86400002       0.86400002       0.86400002       0.86400002       0.86400002       0.86400002       0.86400002       0.86400002       0.86400002       0.86400002       0.86400002       0.86400002       0.86400002       0.86400002       0.86400002       0.86400002       0.86400002       0.86400002       0.86400002       0.86400002       0.86400002       0.86400002       0.86400002       0.86400002       0.86400002       0.86400002       0.86400002       0.86400002       0.86400002       0.86400002       0.86400002       0.86400002       0.86400002       0.86400002       0.86400002       0.86400002       0.86400002       0.86400002       0.86400002       0.86400002
         0.86400002       0.86400002       0.86400002       0.86400002       0.86400002       0.86400002       0.86400002       0.86400002       0.86400002       0.86400002       0.86400002       0.86400002       0.86400002       0.86400002       0.86400002       0.86400002       0.86400002       0.86400002       0.86400002       0.86400002       0.86400002       0.86400002       0.86400002       0.86400002       0.86400002       0.86400002       0.86400002       0.86400002       0.86400002       0.86400002       0.86400002       0.86400002       0.86400002       0.86400002       0.86400002       0.86400002       0.86400002       0.86400002       0.86400002       0.86400002       0.86400002       0.86400002       0.86400002       0.86400002       0.86400002       0.86400002       0.86400002       0.86400002       0.86400002       0.86400002       0.86400002
         0.86400002       0.86400002       0.86400002       0.86400002       0.86400002       0.86400002       0.86400002       0.86400002       0.86400002       0.86400002       0.86400002       0.86400002       0.86400002       0.86400002       0.86400002       0.86400002       0.86400002       0.86400002       0.86400002       0.86400002       0.86400002       0.86400002       0.86400002       0.86400002       0.86400002       0.86400002       0.86400002       0.86400002       0.86400002       0.86400002       0.86400002       0.86400002       0.86400002       0.86400002       0.86400002       0.86400002       0.86400002       0.86400002       0.86400002       0.86400002       0.86400002       0.86400002       0.86400002       0.86400002       0.86400002       0.86400002       0.86400002       0.86400002       0.86400002       0.86400002       0.86400002
         0.86400002       0.86400002       0.86400002       0.86400002       0.86400002       0.86400002       0.86400002       0.86400002       0.86400002       0.86400002       0.86400002       0.86400002       0.86400002       0.86400002       0.86400002       0.86400002       0.86400002       0.86400002       0.86400002       0.86400002       0.86400002       0.86400002       0.86400002       0.86400002       0.86400002       0.86400002       0.86400002       0.86400002       0.86400002       0.86400002       0.86400002       0.86400002       0.86400002       0.86400002       0.86400002       0.86400002       0.86400002       0.86400002       0.86400002       0.86400002       0.86400002       0.86400002       0.86400002       0.86400002       0.86400002       0.86400002       0.86400002       0.86400002       0.86400002       0.86400002       0.86400002
         0.86400002       0.86400002       0.86400002       0.86400002       0.86400002       0.86400002       0.86400002       0.86400002       0.86400002       0.86400002       0.86400002       0.86400002       0.86400002       0.86400002       0.86400002       0.86400002       0.86400002       0.86400002       0.86400002       0.86400002       0.86400002       0.86400002       0.86400002       0.86400002       0.86400002       0.86400002       0.86400002       0.86400002       0.86400002       0.86400002       0.86400002       0.86400002       0.86400002       0.86400002       0.86400002       0.86400002       0.86400002       0.86400002       0.86400002       0.86400002       0.86400002       0.86400002       0.86400002       0.86400002       0.86400002       0.86400002       0.86400002       0.86400002       0.86400002       0.86400002       0.86400002
         0.86400002       0.86400002       0.86400002       0.86400002       0.86400002       0.86400002       0.86400002       0.86400002       0.86400002       0.86400002       0.86400002       0.86400002       0.86400002       0.86400002       0.86400002       0.86400002       0.86400002       0.86400002       0.86400002       0.86400002       0.86400002       0.86400002       0.86400002       0.86400002       0.86400002       0.86400002       0.86400002       0.86400002       0.86400002       0.86400002       0.86400002       0.86400002       0.86400002       0.86400002       0.86400002       0.86400002       0.86400002       0.86400002       0.86400002       0.86400002       0.86400002       0.86400002       0.86400002       0.86400002       0.86400002       0.86400002       0.86400002       0.86400002       0.86400002       0.86400002       0.86400002
         0.86400002       0.86400002       0.86400002       0.86400002       0.86400002       0.86400002       0.86400002       0.86400002       0.86400002       0.86400002       0.86400002       0.86400002       0.86400002       0.86400002       0.86400002       0.86400002       0.86400002       0.86400002       0.86400002       0.86400002       0.86400002       0.86400002       0.86400002       0.86400002       0.86400002       0.86400002       0.86400002       0.86400002       0.86400002       0.86400002       0.86400002       0.86400002       0.86400002       0.86400002       0.86400002       0.86400002       0.86400002       0.86400002       0.86400002       0.86400002       0.86400002       0.86400002       0.86400002       0.86400002       0.86400002       0.86400002       0.86400002       0.86400002       0.86400002       0.86400002       0.86400002
         0.86400002       0.86400002       0.86400002       0.86400002       0.86400002       0.86400002       0.86400002       0.86400002       0.86400002       0.86400002       0.86400002       0.86400002       0.86400002       0.86400002       0.86400002       0.86400002       0.86400002       0.86400002       0.86400002       0.86400002       0.86400002       0.86400002       0.86400002       0.86400002       0.86400002       0.86400002       0.86400002       0.86400002       0.86400002       0.86400002       0.86400002       0.86400002       0.86400002       0.86400002       0.86400002       0.86400002       0.86400002       0.86400002       0.86400002       0.86400002       0.86400002       0.86400002       0.86400002       0.86400002       0.86400002       0.86400002       0.86400002       0.86400002       0.86400002       0.86400002       0.86400002
         0.86400002       0.86400002       0.86400002       0.86400002       0.86400002       0.86400002       0.86400002       0.86400002       0.86400002       0.86400002       0.86400002       0.86400002       0.86400002       0.86400002       0.86400002       0.86400002       0.86400002       0.86400002       0.86400002       0.86400002       0.86400002       0.86400002       0.86400002       0.86400002       0.86400002       0.86400002       0.86400002       0.86400002       0.86400002       0.86400002       0.86400002       0.86400002       0.86400002       0.86400002       0.86400002       0.86400002       0.86400002       0.86400002       0.86400002       0.86400002       0.86400002       0.86400002       0.86400002       0.86400002       0.86400002       0.86400002       0.86400002       0.86400002       0.86400002       0.86400002       0.86400002
         0.86400002       0.86400002       0.86400002       0.86400002       0.86400002       0.86400002       0.86400002       0.86400002       0.86400002       0.86400002       0.86400002       0.86400002       0.86400002       0.86400002       0.86400002       0.86400002       0.86400002       0.86400002       0.86400002       0.86400002       0.86400002       0.86400002       0.86400002       0.86400002       0.86400002       0.86400002       0.86400002       0.86400002       0.86400002       0.86400002       0.86400002       0.86400002       0.86400002       0.86400002       0.86400002       0.86400002       0.86400002       0.86400002       0.86400002       0.86400002       0.86400002       0.86400002       0.86400002       0.86400002       0.86400002       0.86400002       0.86400002       0.86400002       0.86400002       0.86400002       0.86400002
         0.86400002       0.86400002       0.86400002       0.86400002       0.86400002       0.86400002       0.86400002       0.86400002       0.86400002       0.86400002       0.86400002       0.86400002       0.86400002       0.86400002       0.86400002       0.86400002       0.86400002       0.86400002       0.86400002       0.86400002       0.86400002       0.86400002       0.86400002       0.86400002       0.86400002       0.86400002       0.86400002       0.86400002       0.86400002       0.86400002       0.86400002       0.86400002       0.86400002       0.86400002       0.86400002       0.86400002       0.86400002       0.86400002       0.86400002       0.86400002       0.86400002       0.86400002       0.86400002       0.86400002       0.86400002       0.86400002       0.86400002       0.86400002       0.86400002       0.86400002       0.86400002
         0.86400002       0.86400002       0.86400002       0.86400002       0.86400002       0.86400002       0.86400002       0.86400002       0.86400002       0.86400002       0.86400002       0.86400002       0.86400002       0.86400002       0.86400002       0.86400002       0.86400002       0.86400002       0.86400002       0.86400002       0.86400002       0.86400002       0.86400002       0.86400002       0.86400002       0.86400002       0.86400002       0.86400002       0.86400002       0.86400002       0.86400002       0.86400002       0.86400002       0.86400002       0.86400002       0.86400002       0.86400002       0.86400002       0.86400002       0.86400002       0.86400002       0.86400002       0.86400002       0.86400002       0.86400002       0.86400002       0.86400002       0.86400002       0.86400002       0.86400002       0.86400002
         0.86400002       0.86400002       0.86400002       0.86400002       0.86400002       0.86400002       0.86400002       0.86400002       0.86400002       0.86400002       0.86400002       0.86400002       0.86400002       0.86400002       0.86400002       0.86400002       0.86400002       0.86400002       0.86400002       0.86400002       0.86400002       0.86400002       0.86400002       0.86400002       0.86400002       0.86400002       0.86400002       0.86400002       0.86400002       0.86400002       0.86400002       0.86400002       0.86400002       0.86400002       0.86400002       0.86400002       0.86400002       0.86400002       0.86400002       0.86400002       0.86400002       0.86400002       0.86400002       0.86400002       0.86400002       0.86400002       0.86400002       0.86400002       0.86400002       0.86400002       0.86400002
         0.86400002       0.86400002       0.86400002       0.86400002       0.86400002       0.86400002       0.86400002       0.86400002       0.86400002       0.86400002       0.86400002       0.86400002       0.86400002       0.86400002       0.86400002       0.86400002       0.86400002       0.86400002       0.86400002       0.86400002       0.86400002       0.86400002       0.86400002       0.86400002       0.86400002       0.86400002       0.86400002       0.86400002       0.86400002       0.86400002       0.86400002       0.86400002       0.86400002       0.86400002       0.86400002       0.86400002       0.86400002       0.86400002       0.86400002       0.86400002       0.86400002       0.86400002       0.86400002       0.86400002       0.86400002       0.86400002       0.86400002       0.86400002       0.86400002       0.86400002       0.86400002
         0.86400002       0.86400002       0.86400002       0.86400002       0.86400002       0.86400002       0.86400002       0.86400002       0.86400002       0.86400002       0.86400002       0.86400002       0.86400002       0.86400002       0.86400002       0.86400002       0.86400002       0.86400002       0.86400002       0.86400002       0.86400002       0.86400002       0.86400002       0.86400002       0.86400002       0.86400002       0.86400002       0.86400002       0.86400002       0.86400002       0.86400002       0.86400002       0.86400002       0.86400002       0.86400002       0.86400002       0.86400002       0.86400002       0.86400002       0.86400002       0.86400002       0.86400002       0.86400002       0.86400002       0.86400002       0.86400002       0.86400002       0.86400002       0.86400002       0.86400002       0.86400002
         0.86400002       0.86400002       0.86400002       0.86400002       0.86400002       0.86400002       0.86400002       0.86400002       0.86400002       0.86400002       0.86400002       0.86400002       0.86400002       0.86400002       0.86400002       0.86400002       0.86400002       0.86400002       0.86400002       0.86400002       0.86400002       0.86400002       0.86400002       0.86400002       0.86400002       0.86400002       0.86400002       0.86400002       0.86400002       0.86400002       0.86400002       0.86400002       0.86400002       0.86400002       0.86400002       0.86400002       0.86400002       0.86400002       0.86400002       0.86400002       0.86400002       0.86400002       0.86400002       0.86400002       0.86400002       0.86400002       0.86400002       0.86400002       0.86400002       0.86400002       0.86400002
         0.86400002       0.86400002       0.86400002       0.86400002       0.86400002       0.86400002       0.86400002       0.86400002       0.86400002       0.86400002       0.86400002       0.86400002       0.86400002       0.86400002       0.86400002       0.86400002       0.86400002       0.86400002       0.86400002       0.86400002       0.86400002       0.86400002       0.86400002       0.86400002       0.86400002       0.86400002       0.86400002       0.86400002       0.86400002       0.86400002       0.86400002       0.86400002       0.86400002       0.86400002       0.86400002       0.86400002       0.86400002       0.86400002       0.86400002       0.86400002       0.86400002       0.86400002       0.86400002       0.86400002       0.86400002       0.86400002       0.86400002       0.86400002       0.86400002       0.86400002       0.86400002
         0.86400002       0.86400002       0.86400002       0.86400002       0.86400002       0.86400002       0.86400002       0.86400002       0.86400002       0.86400002       0.86400002       0.86400002       0.86400002       0.86400002       0.86400002       0.86400002       0.86400002       0.86400002       0.86400002       0.86400002       0.86400002       0.86400002       0.86400002       0.86400002       0.86400002       0.86400002       0.86400002       0.86400002       0.86400002       0.86400002       0.86400002       0.86400002       0.86400002       0.86400002       0.86400002       0.86400002       0.86400002       0.86400002       0.86400002       0.86400002       0.86400002       0.86400002       0.86400002       0.86400002       0.86400002       0.86400002       0.86400002       0.86400002       0.86400002       0.86400002       0.86400002
         0.86400002       0.86400002       0.86400002       0.86400002       0.86400002       0.86400002       0.86400002       0.86400002       0.86400002       0.86400002       0.86400002       0.86400002       0.86400002       0.86400002       0.86400002       0.86400002       0.86400002       0.86400002       0.86400002       0.86400002       0.86400002       0.86400002       0.86400002       0.86400002       0.86400002       0.86400002       0.86400002       0.86400002       0.86400002       0.86400002       0.86400002       0.86400002       0.86400002       0.86400002       0.86400002       0.86400002       0.86400002       0.86400002       0.86400002       0.86400002       0.86400002       0.86400002       0.86400002       0.86400002       0.86400002       0.86400002       0.86400002       0.86400002       0.86400002       0.86400002       0.86400002
         0.86400002       0.86400002       0.86400002       0.86400002       0.86400002       0.86400002       0.86400002       0.86400002       0.86400002       0.86400002       0.86400002       0.86400002       0.86400002       0.86400002       0.86400002       0.86400002       0.86400002       0.86400002       0.86400002       0.86400002       0.86400002       0.86400002       0.86400002       0.86400002       0.86400002       0.86400002       0.86400002       0.86400002       0.86400002       0.86400002       0.86400002       0.86400002       0.86400002       0.86400002       0.86400002       0.86400002       0.86400002       0.86400002       0.86400002       0.86400002       0.86400002       0.86400002       0.86400002       0.86400002       0.86400002       0.86400002       0.86400002       0.86400002       0.86400002       0.86400002       0.86400002
         0.86400002       0.86400002       0.86400002       0.86400002       0.86400002       0.86400002       0.86400002       0.86400002       0.86400002       0.86400002       0.86400002       0.86400002       0.86400002       0.86400002       0.86400002       0.86400002       0.86400002       0.86400002       0.86400002       0.86400002       0.86400002       0.86400002       0.86400002       0.86400002       0.86400002       0.86400002       0.86400002       0.86400002       0.86400002       0.86400002       0.86400002       0.86400002       0.86400002       0.86400002       0.86400002       0.86400002       0.86400002       0.86400002       0.86400002       0.86400002       0.86400002       0.86400002       0.86400002       0.86400002       0.86400002       0.86400002       0.86400002       0.86400002       0.86400002       0.86400002       0.86400002
END griddata

