# File generated by Flopy version 3.3.5 on 12/07/2022 at 13:22:42.
BEGIN options
END options

BEGIN dimensions
  MAXBOUND  720
END dimensions

BEGIN period  1
  1 2 11     608.93164062  8.64000000E+05
  1 2 12    1029.07543945  8.64000000E+05
  1 2 13    1088.81713867  8.64000000E+05
  1 2 14    1094.62744141  8.64000000E+05
  1 3 9    1032.30444336  8.64000000E+05
  1 3 11     905.43389893  8.64000000E+05
  1 3 12     959.48803711  8.64000000E+05
  1 3 13     983.04675293  8.64000000E+05
  1 3 14    1069.36828613  8.64000000E+05
  1 3 15    1132.18029785  8.64000000E+05
  1 3 16    1085.69360352  8.64000000E+05
  1 3 17     944.93182373  8.64000000E+05
  1 3 18     889.52636719  8.64000000E+05
  1 4 5     602.33544922  8.64000000E+05
  1 4 6     657.98620605  8.64000000E+05
  1 4 7     807.53234863  8.64000000E+05
  1 4 8     907.64794922  8.64000000E+05
  1 4 9    1103.49804688  8.64000000E+05
  1 4 10    1073.46423340  8.64000000E+05
  1 4 11    1063.73608398  8.64000000E+05
  1 4 12     993.78790283  8.64000000E+05
  1 4 13     914.29052734  8.64000000E+05
  1 4 14     963.08605957  8.64000000E+05
  1 4 15    1065.61535645  8.64000000E+05
  1 4 16    1119.60620117  8.64000000E+05
  1 4 17    1112.32849121  8.64000000E+05
  1 4 18    1093.86547852  8.64000000E+05
  1 4 19     988.35632324  8.64000000E+05
  1 4 20    1024.66235352  8.64000000E+05
  1 5 4     576.93231201  8.64000000E+05
  1 5 5     823.06890869  8.64000000E+05
  1 5 6     977.16760254  8.64000000E+05
  1 5 7     953.85131836  8.64000000E+05
  1 5 8    1032.43273926  8.64000000E+05
  1 5 9    1034.18041992  8.64000000E+05
  1 5 10    1095.36962891  8.64000000E+05
  1 5 11    1093.58410645  8.64000000E+05
  1 5 12    1109.42346191  8.64000000E+05
  1 5 13    1000.26678467  8.64000000E+05
  1 5 14     875.75909424  8.64000000E+05
  1 5 15     985.22076416  8.64000000E+05
  1 5 16     999.76281738  8.64000000E+05
  1 5 17    1067.26318359  8.64000000E+05
  1 5 18    1044.02758789  8.64000000E+05
  1 5 19    1086.59545898  8.64000000E+05
  1 5 20    1102.13586426  8.64000000E+05
  1 5 21    1137.76159668  8.64000000E+05
  1 6 4     907.51672363  8.64000000E+05
  1 6 5     897.57623291  8.64000000E+05
  1 6 6     873.59136963  8.64000000E+05
  1 6 7     932.74005127  8.64000000E+05
  1 6 8     952.55023193  8.64000000E+05
  1 6 9    1029.38085938  8.64000000E+05
  1 6 10    1054.95410156  8.64000000E+05
  1 6 11    1143.42480469  8.64000000E+05
  1 6 12    1147.87231445  8.64000000E+05
  1 6 13    1058.09252930  8.64000000E+05
  1 6 14     890.07397461  8.64000000E+05
  1 6 15     853.98919678  8.64000000E+05
  1 6 16     924.04650879  8.64000000E+05
  1 6 17    1008.25885010  8.64000000E+05
  1 6 18     919.56512451  8.64000000E+05
  1 6 19     946.67138672  8.64000000E+05
  1 6 20    1024.40002441  8.64000000E+05
  1 6 21    1169.03808594  8.64000000E+05
  1 6 22    1106.15832520  8.64000000E+05
  1 6 23    1112.15502930  8.64000000E+05
  1 7 2    1025.96166992  8.64000000E+05
  1 7 3    1030.23620605  8.64000000E+05
  1 7 4    1013.18487549  8.64000000E+05
  1 7 5     954.79968262  8.64000000E+05
  1 7 6     894.13928223  8.64000000E+05
  1 7 7     845.87957764  8.64000000E+05
  1 7 8     928.55725098  8.64000000E+05
  1 7 9    1030.47375488  8.64000000E+05
  1 7 10    1072.98535156  8.64000000E+05
  1 7 11    1080.77478027  8.64000000E+05
  1 7 12    1068.56652832  8.64000000E+05
  1 7 13    1043.05615234  8.64000000E+05
  1 7 14    1011.34320068  8.64000000E+05
  1 7 15     840.49346924  8.64000000E+05
  1 7 16     872.65258789  8.64000000E+05
  1 7 17     880.41528320  8.64000000E+05
  1 7 18     879.07366943  8.64000000E+05
  1 7 19    1016.26245117  8.64000000E+05
  1 7 20    1110.65942383  8.64000000E+05
  1 7 21    1149.27343750  8.64000000E+05
  1 7 22    1090.99450684  8.64000000E+05
  1 7 23    1096.25183105  8.64000000E+05
  1 8 1     842.02618408  8.64000000E+05
  1 8 2     932.91564941  8.64000000E+05
  1 8 3     988.41937256  8.64000000E+05
  1 8 4    1039.83996582  8.64000000E+05
  1 8 5    1041.84570312  8.64000000E+05
  1 8 6     970.13464355  8.64000000E+05
  1 8 7     834.84320068  8.64000000E+05
  1 8 8     936.18707275  8.64000000E+05
  1 8 9    1019.00189209  8.64000000E+05
  1 8 10    1029.26049805  8.64000000E+05
  1 8 11    1042.93701172  8.64000000E+05
  1 8 12    1049.72302246  8.64000000E+05
  1 8 13    1019.88854980  8.64000000E+05
  1 8 14    1019.71032715  8.64000000E+05
  1 8 15     949.48944092  8.64000000E+05
  1 8 16     783.67785645  8.64000000E+05
  1 8 17     810.94934082  8.64000000E+05
  1 8 18     979.41870117  8.64000000E+05
  1 8 19    1108.35705566  8.64000000E+05
  1 8 20    1061.85156250  8.64000000E+05
  1 8 21    1005.69403076  8.64000000E+05
  1 8 22     899.86511230  8.64000000E+05
  1 8 23     987.09259033  8.64000000E+05
  1 8 24    1090.04724121  8.64000000E+05
  1 9 1     704.12579346  8.64000000E+05
  1 9 2     882.81146240  8.64000000E+05
  1 9 3     894.46081543  8.64000000E+05
  1 9 4     925.85943604  8.64000000E+05
  1 9 5     938.78308105  8.64000000E+05
  1 9 6     976.04980469  8.64000000E+05
  1 9 7     851.62042236  8.64000000E+05
  1 9 8     811.75836182  8.64000000E+05
  1 9 9     884.66552734  8.64000000E+05
  1 9 10     933.63555908  8.64000000E+05
  1 9 11     987.53796387  8.64000000E+05
  1 9 12     994.59039307  8.64000000E+05
  1 9 13     915.81634521  8.64000000E+05
  1 9 14     917.58642578  8.64000000E+05
  1 9 15    1018.67291260  8.64000000E+05
  1 9 16     887.33129883  8.64000000E+05
  1 9 17     768.16894531  8.64000000E+05
  1 9 18     834.68096924  8.64000000E+05
  1 9 19    1020.32861328  8.64000000E+05
  1 9 20     995.65277100  8.64000000E+05
  1 9 21     867.48803711  8.64000000E+05
  1 9 22     814.57702637  8.64000000E+05
  1 9 23     996.21002197  8.64000000E+05
  1 9 24    1175.45019531  8.64000000E+05
  1 9 25    1123.34228516  8.64000000E+05
  1 9 26    1085.64038086  8.64000000E+05
  1 9 27     978.28503418  8.64000000E+05
  1 10 2     716.49505615  8.64000000E+05
  1 10 3     938.44384766  8.64000000E+05
  1 10 4     879.71685791  8.64000000E+05
  1 10 5     875.11749268  8.64000000E+05
  1 10 6    1003.97882080  8.64000000E+05
  1 10 7     973.63604736  8.64000000E+05
  1 10 8     813.70434570  8.64000000E+05
  1 10 9     777.71813965  8.64000000E+05
  1 10 10     833.96228027  8.64000000E+05
  1 10 11     996.84979248  8.64000000E+05
  1 10 12     849.41619873  8.64000000E+05
  1 10 13     809.34411621  8.64000000E+05
  1 10 14     749.07623291  8.64000000E+05
  1 10 15     875.48211670  8.64000000E+05
  1 10 16     925.12774658  8.64000000E+05
  1 10 17     856.84649658  8.64000000E+05
  1 10 18     763.35961914  8.64000000E+05
  1 10 19     890.73052979  8.64000000E+05
  1 10 20     973.51855469  8.64000000E+05
  1 10 21     772.22479248  8.64000000E+05
  1 10 22     892.49908447  8.64000000E+05
  1 10 23     985.63964844  8.64000000E+05
  1 10 24    1078.87805176  8.64000000E+05
  1 10 25     920.11889648  8.64000000E+05
  1 10 26     912.62036133  8.64000000E+05
  1 10 27    1061.96032715  8.64000000E+05
  1 10 28     991.85290527  8.64000000E+05
  1 11 2     811.81152344  8.64000000E+05
  1 11 3     995.55242920  8.64000000E+05
  1 11 4     955.59515381  8.64000000E+05
  1 11 5     834.29302979  8.64000000E+05
  1 11 6     847.44537354  8.64000000E+05
  1 11 7     936.16223145  8.64000000E+05
  1 11 8     941.13311768  8.64000000E+05
  1 11 9     848.99060059  8.64000000E+05
  1 11 10     759.84600830  8.64000000E+05
  1 11 11     805.68170166  8.64000000E+05
  1 11 12     745.22711182  8.64000000E+05
  1 11 13     727.60736084  8.64000000E+05
  1 11 14     832.56243896  8.64000000E+05
  1 11 15     742.29412842  8.64000000E+05
  1 11 16     726.33569336  8.64000000E+05
  1 11 17     763.59094238  8.64000000E+05
  1 11 18     790.10430908  8.64000000E+05
  1 11 19     733.05749512  8.64000000E+05
  1 11 20     930.22821045  8.64000000E+05
  1 11 21     762.03948975  8.64000000E+05
  1 11 22     811.73577881  8.64000000E+05
  1 11 23     999.45678711  8.64000000E+05
  1 11 24     892.61486816  8.64000000E+05
  1 11 25     792.08239746  8.64000000E+05
  1 11 26     966.89941406  8.64000000E+05
  1 11 27     994.78668213  8.64000000E+05
  1 11 28     859.63641357  8.64000000E+05
  1 11 29     931.90124512  8.64000000E+05
  1 11 30     880.38049316  8.64000000E+05
  1 12 2     861.41192627  8.64000000E+05
  1 12 3     904.91088867  8.64000000E+05
  1 12 4     909.26892090  8.64000000E+05
  1 12 5     853.10583496  8.64000000E+05
  1 12 6     801.25280762  8.64000000E+05
  1 12 7     794.48870850  8.64000000E+05
  1 12 8     781.64221191  8.64000000E+05
  1 12 9     753.57452393  8.64000000E+05
  1 12 10     777.57800293  8.64000000E+05
  1 12 11     856.66595459  8.64000000E+05
  1 12 12     848.42340088  8.64000000E+05
  1 12 13     880.44335938  8.64000000E+05
  1 12 14    1026.23400879  8.64000000E+05
  1 12 15     974.94616699  8.64000000E+05
  1 12 16     905.80493164  8.64000000E+05
  1 12 17     720.37585449  8.64000000E+05
  1 12 18     712.43383789  8.64000000E+05
  1 12 19     704.83709717  8.64000000E+05
  1 12 20     770.06671143  8.64000000E+05
  1 12 21     729.66668701  8.64000000E+05
  1 12 22     789.83703613  8.64000000E+05
  1 12 23     866.99487305  8.64000000E+05
  1 12 24     746.26336670  8.64000000E+05
  1 12 25     906.21630859  8.64000000E+05
  1 12 26     963.72705078  8.64000000E+05
  1 12 27     967.94091797  8.64000000E+05
  1 12 28     788.46936035  8.64000000E+05
  1 12 29     831.47607422  8.64000000E+05
  1 12 30     992.92285156  8.64000000E+05
  1 12 31     947.86047363  8.64000000E+05
  1 12 32     971.32757568  8.64000000E+05
  1 13 1     812.19274902  8.64000000E+05
  1 13 2     944.67645264  8.64000000E+05
  1 13 3     895.27862549  8.64000000E+05
  1 13 4     857.47253418  8.64000000E+05
  1 13 5     814.73864746  8.64000000E+05
  1 13 6     827.24151611  8.64000000E+05
  1 13 7     950.59484863  8.64000000E+05
  1 13 8     895.48504639  8.64000000E+05
  1 13 9     803.66955566  8.64000000E+05
  1 13 10     846.72521973  8.64000000E+05
  1 13 11     991.45166016  8.64000000E+05
  1 13 12     906.63403320  8.64000000E+05
  1 13 13     981.47644043  8.64000000E+05
  1 13 14    1037.58312988  8.64000000E+05
  1 13 15    1048.89965820  8.64000000E+05
  1 13 16    1019.99176025  8.64000000E+05
  1 13 17     851.69024658  8.64000000E+05
  1 13 18     712.78320312  8.64000000E+05
  1 13 19     709.94580078  8.64000000E+05
  1 13 20     718.22094727  8.64000000E+05
  1 13 21     695.75750732  8.64000000E+05
  1 13 22     768.08843994  8.64000000E+05
  1 13 23     771.05004883  8.64000000E+05
  1 13 24     794.16754150  8.64000000E+05
  1 13 25     962.44152832  8.64000000E+05
  1 13 26     826.10369873  8.64000000E+05
  1 13 27     966.47204590  8.64000000E+05
  1 13 28     747.54833984  8.64000000E+05
  1 13 29     752.75170898  8.64000000E+05
  1 13 30     922.44177246  8.64000000E+05
  1 13 31     765.33502197  8.64000000E+05
  1 13 32     797.97589111  8.64000000E+05
  1 13 33     843.81994629  8.64000000E+05
  1 13 34     824.86370850  8.64000000E+05
  1 14 1     928.90124512  8.64000000E+05
  1 14 2     941.59729004  8.64000000E+05
  1 14 3     874.86694336  8.64000000E+05
  1 14 4     853.25457764  8.64000000E+05
  1 14 5     912.88824463  8.64000000E+05
  1 14 6     933.86889648  8.64000000E+05
  1 14 7     946.06573486  8.64000000E+05
  1 14 8     898.17266846  8.64000000E+05
  1 14 9     889.12042236  8.64000000E+05
  1 14 10     889.57366943  8.64000000E+05
  1 14 11     999.15197754  8.64000000E+05
  1 14 12     973.64593506  8.64000000E+05
  1 14 13     975.85974121  8.64000000E+05
  1 14 14    1019.21575928  8.64000000E+05
  1 14 15     995.80291748  8.64000000E+05
  1 14 16     878.85144043  8.64000000E+05
  1 14 17     756.61791992  8.64000000E+05
  1 14 18     827.74273682  8.64000000E+05
  1 14 19     921.19537354  8.64000000E+05
  1 14 20     727.38220215  8.64000000E+05
  1 14 21     695.13391113  8.64000000E+05
  1 14 22     699.57592773  8.64000000E+05
  1 14 23     695.14416504  8.64000000E+05
  1 14 24     753.30084229  8.64000000E+05
  1 14 25     916.21752930  8.64000000E+05
  1 14 26     761.33245850  8.64000000E+05
  1 14 27     907.17010498  8.64000000E+05
  1 14 28     722.72967529  8.64000000E+05
  1 14 29     770.64154053  8.64000000E+05
  1 14 30     922.59918213  8.64000000E+05
  1 14 31     738.78204346  8.64000000E+05
  1 14 32     746.11718750  8.64000000E+05
  1 14 33     741.36132812  8.64000000E+05
  1 14 34     836.09088135  8.64000000E+05
  1 14 35     774.60437012  8.64000000E+05
  1 14 36     811.69512939  8.64000000E+05
  1 14 37     751.03460693  8.64000000E+05
  1 14 40     753.45574951  8.64000000E+05
  1 14 41     786.80932617  8.64000000E+05
  1 15 1     958.93103027  8.64000000E+05
  1 15 2     958.18743896  8.64000000E+05
  1 15 3     940.48748779  8.64000000E+05
  1 15 4     947.62274170  8.64000000E+05
  1 15 5    1002.99560547  8.64000000E+05
  1 15 6     999.71136475  8.64000000E+05
  1 15 7     962.24121094  8.64000000E+05
  1 15 8     993.89532471  8.64000000E+05
  1 15 9     977.50732422  8.64000000E+05
  1 15 10     965.03393555  8.64000000E+05
  1 15 11     986.70874023  8.64000000E+05
  1 15 12    1005.68804932  8.64000000E+05
  1 15 13    1020.00921631  8.64000000E+05
  1 15 14    1009.32366943  8.64000000E+05
  1 15 15     962.53607178  8.64000000E+05
  1 15 16     847.84490967  8.64000000E+05
  1 15 17     903.73211670  8.64000000E+05
  1 15 18     876.97833252  8.64000000E+05
  1 15 19     924.83776855  8.64000000E+05
  1 15 20     849.15356445  8.64000000E+05
  1 15 21     842.72119141  8.64000000E+05
  1 15 22     764.35565186  8.64000000E+05
  1 15 23     695.65185547  8.64000000E+05
  1 15 24     736.78192139  8.64000000E+05
  1 15 25     811.16064453  8.64000000E+05
  1 15 26     735.30230713  8.64000000E+05
  1 15 27     880.97625732  8.64000000E+05
  1 15 28     703.94824219  8.64000000E+05
  1 15 29     787.58691406  8.64000000E+05
  1 15 30     920.06591797  8.64000000E+05
  1 15 31     715.62213135  8.64000000E+05
  1 15 32     703.34271240  8.64000000E+05
  1 15 33     723.28253174  8.64000000E+05
  1 15 34     768.25805664  8.64000000E+05
  1 15 35     716.59442139  8.64000000E+05
  1 15 36     731.59283447  8.64000000E+05
  1 15 37     732.29418945  8.64000000E+05
  1 15 38     726.51989746  8.64000000E+05
  1 15 39     726.20214844  8.64000000E+05
  1 15 40     721.08728027  8.64000000E+05
  1 15 41     751.30511475  8.64000000E+05
  1 15 42     730.74444580  8.64000000E+05
  1 15 43     757.14416504  8.64000000E+05
  1 15 44     734.01763916  8.64000000E+05
  1 16 1     921.27752686  8.64000000E+05
  1 16 2    1011.99554443  8.64000000E+05
  1 16 3     970.21807861  8.64000000E+05
  1 16 4     985.84942627  8.64000000E+05
  1 16 5    1008.76086426  8.64000000E+05
  1 16 6    1009.13531494  8.64000000E+05
  1 16 7     998.21893311  8.64000000E+05
  1 16 8     991.82897949  8.64000000E+05
  1 16 9     999.35382080  8.64000000E+05
  1 16 10    1011.97064209  8.64000000E+05
  1 16 11    1012.49493408  8.64000000E+05
  1 16 12    1052.05078125  8.64000000E+05
  1 16 13    1014.72406006  8.64000000E+05
  1 16 14     974.86737061  8.64000000E+05
  1 16 15     942.59637451  8.64000000E+05
  1 16 16     893.74145508  8.64000000E+05
  1 16 17     947.22546387  8.64000000E+05
  1 16 18     964.77630615  8.64000000E+05
  1 16 19     996.84271240  8.64000000E+05
  1 16 20     942.69476318  8.64000000E+05
  1 16 21     799.84942627  8.64000000E+05
  1 16 22     691.67346191  8.64000000E+05
  1 16 23     674.04864502  8.64000000E+05
  1 16 24     677.71905518  8.64000000E+05
  1 16 25     678.35894775  8.64000000E+05
  1 16 26     685.34234619  8.64000000E+05
  1 16 27     724.62603760  8.64000000E+05
  1 16 28     684.45410156  8.64000000E+05
  1 16 29     724.78393555  8.64000000E+05
  1 16 30     808.20196533  8.64000000E+05
  1 16 31     684.09228516  8.64000000E+05
  1 16 32     723.93737793  8.64000000E+05
  1 16 33     828.77630615  8.64000000E+05
  1 16 34     752.59411621  8.64000000E+05
  1 16 35     694.05511475  8.64000000E+05
  1 16 36     711.38739014  8.64000000E+05
  1 16 37     702.28405762  8.64000000E+05
  1 16 38     717.62005615  8.64000000E+05
  1 16 39     698.58001709  8.64000000E+05
  1 16 40     698.71173096  8.64000000E+05
  1 16 41     709.77069092  8.64000000E+05
  1 16 42     706.80511475  8.64000000E+05
  1 16 43     735.62500000  8.64000000E+05
  1 16 44     784.37811279  8.64000000E+05
  1 16 45     770.98144531  8.64000000E+05
  1 17 3     978.19647217  8.64000000E+05
  1 17 4    1004.40460205  8.64000000E+05
  1 17 13    1014.87280273  8.64000000E+05
  1 17 14     984.70214844  8.64000000E+05
  1 17 15     957.57208252  8.64000000E+05
  1 17 16     967.83648682  8.64000000E+05
  1 17 17     984.92266846  8.64000000E+05
  1 17 18     974.65820312  8.64000000E+05
  1 17 19     960.35803223  8.64000000E+05
  1 17 20     883.72888184  8.64000000E+05
  1 17 21     843.00854492  8.64000000E+05
  1 17 22     710.27978516  8.64000000E+05
  1 17 23     758.34802246  8.64000000E+05
  1 17 24     789.02081299  8.64000000E+05
  1 17 25     682.80816650  8.64000000E+05
  1 17 26     666.56628418  8.64000000E+05
  1 17 27     660.41168213  8.64000000E+05
  1 17 28     660.89196777  8.64000000E+05
  1 17 29     659.93243408  8.64000000E+05
  1 17 30     664.95361328  8.64000000E+05
  1 17 31     668.45886230  8.64000000E+05
  1 17 32     697.73529053  8.64000000E+05
  1 17 33     836.26068115  8.64000000E+05
  1 17 34     740.06878662  8.64000000E+05
  1 17 35     681.14770508  8.64000000E+05
  1 17 36     687.33636475  8.64000000E+05
  1 17 37     738.50439453  8.64000000E+05
  1 17 38     706.97143555  8.64000000E+05
  1 17 39     687.77191162  8.64000000E+05
  1 17 40     679.15924072  8.64000000E+05
  1 17 41     682.87719727  8.64000000E+05
  1 17 42     698.59863281  8.64000000E+05
  1 17 43     733.30346680  8.64000000E+05
  1 17 44     722.61022949  8.64000000E+05
  1 17 45     684.52770996  8.64000000E+05
  1 17 46     676.05126953  8.64000000E+05
  1 17 47     724.23925781  8.64000000E+05
  1 17 48     699.83386230  8.64000000E+05
  1 17 49     672.76049805  8.64000000E+05
  1 18 16     961.39691162  8.64000000E+05
  1 18 17     993.57312012  8.64000000E+05
  1 18 18     961.73883057  8.64000000E+05
  1 18 19     861.11059570  8.64000000E+05
  1 18 20     770.46368408  8.64000000E+05
  1 18 21     749.43109131  8.64000000E+05
  1 18 22     756.18334961  8.64000000E+05
  1 18 23     787.85797119  8.64000000E+05
  1 18 24     883.53967285  8.64000000E+05
  1 18 25     727.81805420  8.64000000E+05
  1 18 26     691.54931641  8.64000000E+05
  1 18 27     682.03826904  8.64000000E+05
  1 18 28     716.21295166  8.64000000E+05
  1 18 29     730.93127441  8.64000000E+05
  1 18 30     665.04852295  8.64000000E+05
  1 18 31     651.42309570  8.64000000E+05
  1 18 32     655.67230225  8.64000000E+05
  1 18 33     792.52813721  8.64000000E+05
  1 18 34     797.77697754  8.64000000E+05
  1 18 35     670.84179688  8.64000000E+05
  1 18 36     739.57122803  8.64000000E+05
  1 18 37     760.53350830  8.64000000E+05
  1 18 38     702.04913330  8.64000000E+05
  1 18 39     727.95806885  8.64000000E+05
  1 18 40     673.15148926  8.64000000E+05
  1 18 41     680.80328369  8.64000000E+05
  1 18 42     701.48248291  8.64000000E+05
  1 18 43     696.08422852  8.64000000E+05
  1 18 44     695.98248291  8.64000000E+05
  1 18 45     658.14288330  8.64000000E+05
  1 18 46     664.73455811  8.64000000E+05
  1 18 47     727.38049316  8.64000000E+05
  1 18 48     687.84942627  8.64000000E+05
  1 18 49     679.16589355  8.64000000E+05
  1 19 17    1051.22509766  8.64000000E+05
  1 19 18     918.60235596  8.64000000E+05
  1 19 19     827.19372559  8.64000000E+05
  1 19 20     859.47619629  8.64000000E+05
  1 19 21     802.30548096  8.64000000E+05
  1 19 22     791.52191162  8.64000000E+05
  1 19 23     882.81103516  8.64000000E+05
  1 19 24     853.32830811  8.64000000E+05
  1 19 25     745.32281494  8.64000000E+05
  1 19 26     768.91192627  8.64000000E+05
  1 19 27     763.86254883  8.64000000E+05
  1 19 28     725.33563232  8.64000000E+05
  1 19 29     721.38494873  8.64000000E+05
  1 19 30     715.70379639  8.64000000E+05
  1 19 31     715.56127930  8.64000000E+05
  1 19 32     653.51843262  8.64000000E+05
  1 19 33     693.23089600  8.64000000E+05
  1 19 34     680.96350098  8.64000000E+05
  1 19 35     659.65563965  8.64000000E+05
  1 19 36     660.43505859  8.64000000E+05
  1 19 37     660.90722656  8.64000000E+05
  1 19 38     672.96099854  8.64000000E+05
  1 19 39     742.06658936  8.64000000E+05
  1 19 40     669.86883545  8.64000000E+05
  1 19 41     664.40899658  8.64000000E+05
  1 19 42     667.21893311  8.64000000E+05
  1 19 43     687.83508301  8.64000000E+05
  1 19 44     667.36096191  8.64000000E+05
  1 19 45     644.36254883  8.64000000E+05
  1 19 46     653.53472900  8.64000000E+05
  1 19 47     689.11798096  8.64000000E+05
  1 19 48     676.83801270  8.64000000E+05
  1 19 49     693.70989990  8.64000000E+05
  1 19 50     669.74774170  8.64000000E+05
  1 20 17     979.77734375  8.64000000E+05
  1 20 18     989.34576416  8.64000000E+05
  1 20 19     944.87597656  8.64000000E+05
  1 20 20     939.85913086  8.64000000E+05
  1 20 21     885.90161133  8.64000000E+05
  1 20 22     845.23297119  8.64000000E+05
  1 20 23     947.44793701  8.64000000E+05
  1 20 24     892.29565430  8.64000000E+05
  1 20 25     784.21600342  8.64000000E+05
  1 20 26     797.55279541  8.64000000E+05
  1 20 27     812.93109131  8.64000000E+05
  1 20 28     835.23352051  8.64000000E+05
  1 20 29     802.68023682  8.64000000E+05
  1 20 30     739.99969482  8.64000000E+05
  1 20 31     690.18603516  8.64000000E+05
  1 20 32     657.70404053  8.64000000E+05
  1 20 33     648.72491455  8.64000000E+05
  1 20 34     647.54846191  8.64000000E+05
  1 20 35     646.67236328  8.64000000E+05
  1 20 36     648.23669434  8.64000000E+05
  1 20 37     643.83392334  8.64000000E+05
  1 20 38     646.35894775  8.64000000E+05
  1 20 39     716.89825439  8.64000000E+05
  1 20 40     660.91973877  8.64000000E+05
  1 20 41     678.43890381  8.64000000E+05
  1 20 42     655.21203613  8.64000000E+05
  1 20 43     660.28753662  8.64000000E+05
  1 20 44     643.27551270  8.64000000E+05
  1 20 45     633.70751953  8.64000000E+05
  1 20 46     638.37347412  8.64000000E+05
  1 20 47     649.25555420  8.64000000E+05
  1 20 48     657.95507812  8.64000000E+05
  1 20 49     688.01617432  8.64000000E+05
  1 20 50     681.97491455  8.64000000E+05
  1 20 51     673.67022705  8.64000000E+05
  1 21 21     961.58337402  8.64000000E+05
  1 21 22    1023.09185791  8.64000000E+05
  1 21 23     998.68591309  8.64000000E+05
  1 21 24     849.18627930  8.64000000E+05
  1 21 25     792.90911865  8.64000000E+05
  1 21 26     806.08007812  8.64000000E+05
  1 21 27     829.33807373  8.64000000E+05
  1 21 28     750.62017822  8.64000000E+05
  1 21 29     708.27880859  8.64000000E+05
  1 21 30     710.85211182  8.64000000E+05
  1 21 31     691.79364014  8.64000000E+05
  1 21 32     669.37451172  8.64000000E+05
  1 21 33     665.84027100  8.64000000E+05
  1 21 34     655.21954346  8.64000000E+05
  1 21 35     658.31390381  8.64000000E+05
  1 21 36     737.79864502  8.64000000E+05
  1 21 37     664.89898682  8.64000000E+05
  1 21 38     640.05029297  8.64000000E+05
  1 21 39     643.76654053  8.64000000E+05
  1 21 40     644.33642578  8.64000000E+05
  1 21 41     674.62750244  8.64000000E+05
  1 21 42     643.04895020  8.64000000E+05
  1 21 43     634.38531494  8.64000000E+05
  1 21 44     628.56286621  8.64000000E+05
  1 21 45     625.21221924  8.64000000E+05
  1 21 46     629.99841309  8.64000000E+05
  1 21 47     640.01672363  8.64000000E+05
  1 21 48     647.22674561  8.64000000E+05
  1 21 49     655.37365723  8.64000000E+05
  1 21 50     693.38415527  8.64000000E+05
  1 21 51     686.88903809  8.64000000E+05
  1 22 24     882.20867920  8.64000000E+05
  1 22 25     900.43847656  8.64000000E+05
  1 22 26     839.17968750  8.64000000E+05
  1 22 27     780.03973389  8.64000000E+05
  1 22 28     743.57208252  8.64000000E+05
  1 22 29     717.90716553  8.64000000E+05
  1 22 30     786.08410645  8.64000000E+05
  1 22 31     719.84747314  8.64000000E+05
  1 22 32     724.30548096  8.64000000E+05
  1 22 33     681.13177490  8.64000000E+05
  1 22 34     681.06610107  8.64000000E+05
  1 22 35     684.65643311  8.64000000E+05
  1 22 36     678.99163818  8.64000000E+05
  1 22 37     662.13372803  8.64000000E+05
  1 22 38     646.52032471  8.64000000E+05
  1 22 39     637.15997314  8.64000000E+05
  1 22 40     635.43524170  8.64000000E+05
  1 22 41     637.27435303  8.64000000E+05
  1 22 42     629.24182129  8.64000000E+05
  1 22 43     634.16186523  8.64000000E+05
  1 22 44     670.46862793  8.64000000E+05
  1 22 45     632.20520020  8.64000000E+05
  1 22 46     622.92840576  8.64000000E+05
  1 22 47     630.24768066  8.64000000E+05
  1 22 48     636.09954834  8.64000000E+05
  1 22 49     650.13427734  8.64000000E+05
  1 22 50     723.24853516  8.64000000E+05
  1 22 51     698.45764160  8.64000000E+05
  1 23 25     853.54119873  8.64000000E+05
  1 23 26     881.57751465  8.64000000E+05
  1 23 27     873.74603271  8.64000000E+05
  1 23 28     797.14471436  8.64000000E+05
  1 23 29     764.29315186  8.64000000E+05
  1 23 30     828.36236572  8.64000000E+05
  1 23 31     786.78668213  8.64000000E+05
  1 23 32     717.70526123  8.64000000E+05
  1 23 33     753.70422363  8.64000000E+05
  1 23 34     739.72015381  8.64000000E+05
  1 23 35     703.52447510  8.64000000E+05
  1 23 36     698.18249512  8.64000000E+05
  1 23 37     675.61273193  8.64000000E+05
  1 23 38     660.82226562  8.64000000E+05
  1 23 39     656.32342529  8.64000000E+05
  1 23 40     656.42742920  8.64000000E+05
  1 23 41     644.52850342  8.64000000E+05
  1 23 42     642.05603027  8.64000000E+05
  1 23 43     681.19250488  8.64000000E+05
  1 23 44     662.44140625  8.64000000E+05
  1 23 45     636.16156006  8.64000000E+05
  1 23 46     624.31634521  8.64000000E+05
  1 23 47     621.65270996  8.64000000E+05
  1 23 48     626.58044434  8.64000000E+05
  1 23 49     638.96130371  8.64000000E+05
  1 23 50     661.45733643  8.64000000E+05
  1 23 51     666.52618408  8.64000000E+05
  1 24 27     856.73199463  8.64000000E+05
  1 24 28     873.64849854  8.64000000E+05
  1 24 29     829.32904053  8.64000000E+05
  1 24 30     851.43206787  8.64000000E+05
  1 24 31     831.56359863  8.64000000E+05
  1 24 32     741.61370850  8.64000000E+05
  1 24 33     787.09417725  8.64000000E+05
  1 24 34     760.25311279  8.64000000E+05
  1 24 35     753.89538574  8.64000000E+05
  1 24 36     714.96923828  8.64000000E+05
  1 24 37     688.14489746  8.64000000E+05
  1 24 38     665.92364502  8.64000000E+05
  1 24 39     666.34234619  8.64000000E+05
  1 24 40     669.87182617  8.64000000E+05
  1 24 41     659.49639893  8.64000000E+05
  1 24 42     674.39178467  8.64000000E+05
  1 24 43     684.48236084  8.64000000E+05
  1 24 44     667.07019043  8.64000000E+05
  1 24 45     661.53948975  8.64000000E+05
  1 24 46     636.14544678  8.64000000E+05
  1 24 47     624.58178711  8.64000000E+05
  1 24 48     619.13732910  8.64000000E+05
  1 24 49     629.96496582  8.64000000E+05
  1 24 50     636.24603271  8.64000000E+05
  1 25 29     872.19970703  8.64000000E+05
  1 25 30     878.98211670  8.64000000E+05
  1 25 31     894.58044434  8.64000000E+05
  1 25 32     786.87194824  8.64000000E+05
  1 25 33     861.53680420  8.64000000E+05
  1 25 34     820.32586670  8.64000000E+05
  1 25 35     873.91156006  8.64000000E+05
  1 25 36     735.38330078  8.64000000E+05
  1 25 37     693.93762207  8.64000000E+05
  1 25 38     692.89154053  8.64000000E+05
  1 25 39     682.48284912  8.64000000E+05
  1 25 40     682.12164307  8.64000000E+05
  1 25 41     676.96936035  8.64000000E+05
  1 25 42     679.62573242  8.64000000E+05
  1 25 43     674.99127197  8.64000000E+05
  1 25 44     663.30914307  8.64000000E+05
  1 25 45     648.48791504  8.64000000E+05
  1 25 46     638.01965332  8.64000000E+05
  1 25 47     627.47723389  8.64000000E+05
  1 25 48     617.67144775  8.64000000E+05
  1 25 49     619.34252930  8.64000000E+05
  1 26 29     768.86694336  8.64000000E+05
  1 26 30     889.07739258  8.64000000E+05
  1 26 31     993.19824219  8.64000000E+05
  1 26 32     962.52301025  8.64000000E+05
  1 26 33     933.66564941  8.64000000E+05
  1 26 34     874.96447754  8.64000000E+05
  1 26 35     919.22448730  8.64000000E+05
  1 26 36     834.09161377  8.64000000E+05
  1 26 37     740.08880615  8.64000000E+05
  1 26 38     746.67065430  8.64000000E+05
  1 26 39     715.32061768  8.64000000E+05
  1 26 40     703.17468262  8.64000000E+05
  1 26 41     722.50726318  8.64000000E+05
  1 26 42     689.88458252  8.64000000E+05
  1 26 43     679.05627441  8.64000000E+05
  1 26 44     664.39556885  8.64000000E+05
  1 26 45     652.82324219  8.64000000E+05
  1 26 46     643.16253662  8.64000000E+05
  1 26 47     631.27142334  8.64000000E+05
  1 26 48     624.79473877  8.64000000E+05
  1 26 49     621.70269775  8.64000000E+05
  1 27 31     822.60327148  8.64000000E+05
  1 27 32     968.14624023  8.64000000E+05
  1 27 33     901.45300293  8.64000000E+05
  1 27 34     875.10314941  8.64000000E+05
  1 27 36     927.43298340  8.64000000E+05
  1 27 37     886.12365723  8.64000000E+05
  1 27 38     864.07128906  8.64000000E+05
  1 27 39     780.99151611  8.64000000E+05
  1 27 40     755.63763428  8.64000000E+05
  1 27 41     737.24353027  8.64000000E+05
  1 27 42     706.57775879  8.64000000E+05
  1 27 43     687.82275391  8.64000000E+05
  1 27 44     666.42022705  8.64000000E+05
  1 27 45     671.71185303  8.64000000E+05
  1 27 46     658.51385498  8.64000000E+05
  1 27 47     640.38696289  8.64000000E+05