# File generated by Flopy version 3.3.5 on 12/07/2022 at 13:22:42.
BEGIN options
  HEAD  FILEOUT  TRANSIENT.hds
END options

BEGIN period  1
  SAVE  HEAD  FREQUENCY  10
END period  1

