# File generated by Flopy version 3.3.5 on 12/07/2022 at 13:22:42.
BEGIN griddata
  strt
    INTERNAL  FACTOR  1.0
                NAN              NAN              NAN              NAN              NAN              NAN              NAN              NAN              NAN              NAN              NAN              NAN              NAN              NAN              NAN              NAN              NAN              NAN              NAN              NAN              NAN              NAN              NAN              NAN              NAN              NAN              NAN              NAN              NAN              NAN              NAN              NAN              NAN              NAN              NAN              NAN              NAN              NAN              NAN              NAN              NAN              NAN              NAN              NAN              NAN              NAN              NAN              NAN              NAN              NAN              NAN
                NAN              NAN              NAN              NAN              NAN              NAN              NAN              NAN              NAN              NAN     606.93164062    1027.07543945    1086.81713867    1092.62744141              NAN              NAN              NAN              NAN              NAN              NAN              NAN              NAN              NAN              NAN              NAN              NAN              NAN              NAN              NAN              NAN              NAN              NAN              NAN              NAN              NAN              NAN              NAN              NAN              NAN              NAN              NAN              NAN              NAN              NAN              NAN              NAN              NAN              NAN              NAN              NAN              NAN
                NAN              NAN              NAN              NAN              NAN              NAN              NAN              NAN    1030.30444336              NAN     903.43389893     957.48803711     981.04675293    1067.36828613    1130.18029785    1083.69360352     942.93182373     887.52636719              NAN              NAN              NAN              NAN              NAN              NAN              NAN              NAN              NAN              NAN              NAN              NAN              NAN              NAN              NAN              NAN              NAN              NAN              NAN              NAN              NAN              NAN              NAN              NAN              NAN              NAN              NAN              NAN              NAN              NAN              NAN              NAN              NAN
                NAN              NAN              NAN              NAN     600.33544922     655.98620605     805.53234863     905.64794922    1101.49804688    1071.46423340    1061.73608398     991.78790283     912.29052734     961.08605957    1063.61535645    1117.60620117    1110.32849121    1091.86547852     986.35632324    1022.66235352              NAN              NAN              NAN              NAN              NAN              NAN              NAN              NAN              NAN              NAN              NAN              NAN              NAN              NAN              NAN              NAN              NAN              NAN              NAN              NAN              NAN              NAN              NAN              NAN              NAN              NAN              NAN              NAN              NAN              NAN              NAN
                NAN              NAN              NAN     574.93231201     821.06890869     975.16760254     951.85131836    1030.43273926    1032.18041992    1093.36962891    1091.58410645    1107.42346191     998.26678467     873.75909424     983.22076416     997.76281738    1065.26318359    1042.02758789    1084.59545898    1100.13586426    1135.76159668              NAN              NAN              NAN              NAN              NAN              NAN              NAN              NAN              NAN              NAN              NAN              NAN              NAN              NAN              NAN              NAN              NAN              NAN              NAN              NAN              NAN              NAN              NAN              NAN              NAN              NAN              NAN              NAN              NAN              NAN
                NAN              NAN              NAN     905.51672363     895.57623291     871.59136963     930.74005127     950.55023193    1027.38085938    1052.95410156    1141.42480469    1145.87231445    1056.09252930     888.07397461     851.98919678     922.04650879    1006.25885010     917.56512451     944.67138672    1022.40002441    1167.03808594    1104.15832520    1110.15502930              NAN              NAN              NAN              NAN              NAN              NAN              NAN              NAN              NAN              NAN              NAN              NAN              NAN              NAN              NAN              NAN              NAN              NAN              NAN              NAN              NAN              NAN              NAN              NAN              NAN              NAN              NAN              NAN
                NAN    1023.96166992    1028.23620605    1011.18487549     952.79968262     892.13928223     843.87957764     926.55725098    1028.47375488    1070.98535156    1078.77478027    1066.56652832    1041.05615234    1009.34320068     838.49346924     870.65258789     878.41528320     877.07366943    1014.26245117    1108.65942383    1147.27343750    1088.99450684    1094.25183105              NAN              NAN              NAN              NAN              NAN              NAN              NAN              NAN              NAN              NAN              NAN              NAN              NAN              NAN              NAN              NAN              NAN              NAN              NAN              NAN              NAN              NAN              NAN              NAN              NAN              NAN              NAN              NAN
       840.02618408     930.91564941     986.41937256    1037.83996582    1039.84570312     968.13464355     832.84320068     934.18707275    1017.00189209    1027.26049805    1040.93701172    1047.72302246    1017.88854980    1017.71032715     947.48944092     781.67785645     808.94934082     977.41870117    1106.35705566    1059.85156250    1003.69403076     897.86511230     985.09259033    1088.04724121              NAN              NAN              NAN              NAN              NAN              NAN              NAN              NAN              NAN              NAN              NAN              NAN              NAN              NAN              NAN              NAN              NAN              NAN              NAN              NAN              NAN              NAN              NAN              NAN              NAN              NAN              NAN
       702.12579346     880.81146240     892.46081543     923.85943604     936.78308105     974.04980469     849.62042236     809.75836182     882.66552734     931.63555908     985.53796387     992.59039307     913.81634521     915.58642578    1016.67291260     885.33129883     766.16894531     832.68096924    1018.32861328     993.65277100     865.48803711     812.57702637     994.21002197    1173.45019531    1121.34228516    1083.64038086     976.28503418              NAN              NAN              NAN              NAN              NAN              NAN              NAN              NAN              NAN              NAN              NAN              NAN              NAN              NAN              NAN              NAN              NAN              NAN              NAN              NAN              NAN              NAN              NAN              NAN
                NAN     714.49505615     936.44384766     877.71685791     873.11749268    1001.97882080     971.63604736     811.70434570     775.71813965     831.96228027     994.84979248     847.41619873     807.34411621     747.07623291     873.48211670     923.12774658     854.84649658     761.35961914     888.73052979     971.51855469     770.22479248     890.49908447     983.63964844    1076.87805176     918.11889648     910.62036133    1059.96032715     989.85290527              NAN              NAN              NAN              NAN              NAN              NAN              NAN              NAN              NAN              NAN              NAN              NAN              NAN              NAN              NAN              NAN              NAN              NAN              NAN              NAN              NAN              NAN              NAN
                NAN     809.81152344     993.55242920     953.59515381     832.29302979     845.44537354     934.16223145     939.13311768     846.99060059     757.84600830     803.68170166     743.22711182     725.60736084     830.56243896     740.29412842     724.33569336     761.59094238     788.10430908     731.05749512     928.22821045     760.03948975     809.73577881     997.45678711     890.61486816     790.08239746     964.89941406     992.78668213     857.63641357     929.90124512     878.38049316              NAN              NAN              NAN              NAN              NAN              NAN              NAN              NAN              NAN              NAN              NAN              NAN              NAN              NAN              NAN              NAN              NAN              NAN              NAN              NAN              NAN
                NAN     859.41192627     902.91088867     907.26892090     851.10583496     799.25280762     792.48870850     779.64221191     751.57452393     775.57800293     854.66595459     846.42340088     878.44335938    1024.23400879     972.94616699     903.80493164     718.37585449     710.43383789     702.83709717     768.06671143     727.66668701     787.83703613     864.99487305     744.26336670     904.21630859     961.72705078     965.94091797     786.46936035     829.47607422     990.92285156     945.86047363     969.32757568              NAN              NAN              NAN              NAN              NAN              NAN              NAN              NAN              NAN              NAN              NAN              NAN              NAN              NAN              NAN              NAN              NAN              NAN              NAN
       810.19274902     942.67645264     893.27862549     855.47253418     812.73864746     825.24151611     948.59484863     893.48504639     801.66955566     844.72521973     989.45166016     904.63403320     979.47644043    1035.58312988    1046.89965820    1017.99176025     849.69024658     710.78320312     707.94580078     716.22094727     693.75750732     766.08843994     769.05004883     792.16754150     960.44152832     824.10369873     964.47204590     745.54833984     750.75170898     920.44177246     763.33502197     795.97589111     841.81994629     822.86370850              NAN              NAN              NAN              NAN              NAN              NAN              NAN              NAN              NAN              NAN              NAN              NAN              NAN              NAN              NAN              NAN              NAN
       926.90124512     939.59729004     872.86694336     851.25457764     910.88824463     931.86889648     944.06573486     896.17266846     887.12042236     887.57366943     997.15197754     971.64593506     973.85974121    1017.21575928     993.80291748     876.85144043     754.61791992     825.74273682     919.19537354     725.38220215     693.13391113     697.57592773     693.14416504     751.30084229     914.21752930     759.33245850     905.17010498     720.72967529     768.64154053     920.59918213     736.78204346     744.11718750     739.36132812     834.09088135     772.60437012     809.69512939     749.03460693              NAN              NAN     751.45574951     784.80932617              NAN              NAN              NAN              NAN              NAN              NAN              NAN              NAN              NAN              NAN
       956.93103027     956.18743896     938.48748779     945.62274170    1000.99560547     997.71136475     960.24121094     991.89532471     975.50732422     963.03393555     984.70874023    1003.68804932    1018.00921631    1007.32366943     960.53607178     845.84490967     901.73211670     874.97833252     922.83776855     847.15356445     840.72119141     762.35565186     693.65185547     734.78192139     809.16064453     733.30230713     878.97625732     701.94824219     785.58691406     918.06591797     713.62213135     701.34271240     721.28253174     766.25805664     714.59442139     729.59283447     730.29418945     724.51989746     724.20214844     719.08728027     749.30511475     728.74444580     755.14416504     732.01763916              NAN              NAN              NAN              NAN              NAN              NAN              NAN
       919.27752686    1009.99554443     968.21807861     983.84942627    1006.76086426    1007.13531494     996.21893311     989.82897949     997.35382080    1009.97064209    1010.49493408    1050.05078125    1012.72406006     972.86737061     940.59637451     891.74145508     945.22546387     962.77630615     994.84271240     940.69476318     797.84942627     689.67346191     672.04864502     675.71905518     676.35894775     683.34234619     722.62603760     682.45410156     722.78393555     806.20196533     682.09228516     721.93737793     826.77630615     750.59411621     692.05511475     709.38739014     700.28405762     715.62005615     696.58001709     696.71173096     707.77069092     704.80511475     733.62500000     782.37811279     768.98144531              NAN              NAN              NAN              NAN              NAN              NAN
                NAN              NAN     976.19647217    1002.40460205              NAN              NAN              NAN              NAN              NAN              NAN              NAN              NAN    1012.87280273     982.70214844     955.57208252     965.83648682     982.92266846     972.65820312     958.35803223     881.72888184     841.00854492     708.27978516     756.34802246     787.02081299     680.80816650     664.56628418     658.41168213     658.89196777     657.93243408     662.95361328     666.45886230     695.73529053     834.26068115     738.06878662     679.14770508     685.33636475     736.50439453     704.97143555     685.77191162     677.15924072     680.87719727     696.59863281     731.30346680     720.61022949     682.52770996     674.05126953     722.23925781     697.83386230     670.76049805              NAN              NAN
                NAN              NAN              NAN              NAN              NAN              NAN              NAN              NAN              NAN              NAN              NAN              NAN              NAN              NAN              NAN     959.39691162     991.57312012     959.73883057     859.11059570     768.46368408     747.43109131     754.18334961     785.85797119     881.53967285     725.81805420     689.54931641     680.03826904     714.21295166     728.93127441     663.04852295     649.42309570     653.67230225     790.52813721     795.77697754     668.84179688     737.57122803     758.53350830     700.04913330     725.95806885     671.15148926     678.80328369     699.48248291     694.08422852     693.98248291     656.14288330     662.73455811     725.38049316     685.84942627     677.16589355              NAN              NAN
                NAN              NAN              NAN              NAN              NAN              NAN              NAN              NAN              NAN              NAN              NAN              NAN              NAN              NAN              NAN              NAN    1049.22509766     916.60235596     825.19372559     857.47619629     800.30548096     789.52191162     880.81103516     851.32830811     743.32281494     766.91192627     761.86254883     723.33563232     719.38494873     713.70379639     713.56127930     651.51843262     691.23089600     678.96350098     657.65563965     658.43505859     658.90722656     670.96099854     740.06658936     667.86883545     662.40899658     665.21893311     685.83508301     665.36096191     642.36254883     651.53472900     687.11798096     674.83801270     691.70989990     667.74774170              NAN
                NAN              NAN              NAN              NAN              NAN              NAN              NAN              NAN              NAN              NAN              NAN              NAN              NAN              NAN              NAN              NAN     977.77734375     987.34576416     942.87597656     937.85913086     883.90161133     843.23297119     945.44793701     890.29565430     782.21600342     795.55279541     810.93109131     833.23352051     800.68023682     737.99969482     688.18603516     655.70404053     646.72491455     645.54846191     644.67236328     646.23669434     641.83392334     644.35894775     714.89825439     658.91973877     676.43890381     653.21203613     658.28753662     641.27551270     631.70751953     636.37347412     647.25555420     655.95507812     686.01617432     679.97491455     671.67022705
                NAN              NAN              NAN              NAN              NAN              NAN              NAN              NAN              NAN              NAN              NAN              NAN              NAN              NAN              NAN              NAN              NAN              NAN              NAN              NAN     959.58337402    1021.09185791     996.68591309     847.18627930     790.90911865     804.08007812     827.33807373     748.62017822     706.27880859     708.85211182     689.79364014     667.37451172     663.84027100     653.21954346     656.31390381     735.79864502     662.89898682     638.05029297     641.76654053     642.33642578     672.62750244     641.04895020     632.38531494     626.56286621     623.21221924     627.99841309     638.01672363     645.22674561     653.37365723     691.38415527     684.88903809
                NAN              NAN              NAN              NAN              NAN              NAN              NAN              NAN              NAN              NAN              NAN              NAN              NAN              NAN              NAN              NAN              NAN              NAN              NAN              NAN              NAN              NAN              NAN     880.20867920     898.43847656     837.17968750     778.03973389     741.57208252     715.90716553     784.08410645     717.84747314     722.30548096     679.13177490     679.06610107     682.65643311     676.99163818     660.13372803     644.52032471     635.15997314     633.43524170     635.27435303     627.24182129     632.16186523     668.46862793     630.20520020     620.92840576     628.24768066     634.09954834     648.13427734     721.24853516     696.45764160
                NAN              NAN              NAN              NAN              NAN              NAN              NAN              NAN              NAN              NAN              NAN              NAN              NAN              NAN              NAN              NAN              NAN              NAN              NAN              NAN              NAN              NAN              NAN              NAN     851.54119873     879.57751465     871.74603271     795.14471436     762.29315186     826.36236572     784.78668213     715.70526123     751.70422363     737.72015381     701.52447510     696.18249512     673.61273193     658.82226562     654.32342529     654.42742920     642.52850342     640.05603027     679.19250488     660.44140625     634.16156006     622.31634521     619.65270996     624.58044434     636.96130371     659.45733643     664.52618408
                NAN              NAN              NAN              NAN              NAN              NAN              NAN              NAN              NAN              NAN              NAN              NAN              NAN              NAN              NAN              NAN              NAN              NAN              NAN              NAN              NAN              NAN              NAN              NAN              NAN              NAN     854.73199463     871.64849854     827.32904053     849.43206787     829.56359863     739.61370850     785.09417725     758.25311279     751.89538574     712.96923828     686.14489746     663.92364502     664.34234619     667.87182617     657.49639893     672.39178467     682.48236084     665.07019043     659.53948975     634.14544678     622.58178711     617.13732910     627.96496582     634.24603271              NAN
                NAN              NAN              NAN              NAN              NAN              NAN              NAN              NAN              NAN              NAN              NAN              NAN              NAN              NAN              NAN              NAN              NAN              NAN              NAN              NAN              NAN              NAN              NAN              NAN              NAN              NAN              NAN              NAN     870.19970703     876.98211670     892.58044434     784.87194824     859.53680420     818.32586670     871.91156006     733.38330078     691.93762207     690.89154053     680.48284912     680.12164307     674.96936035     677.62573242     672.99127197     661.30914307     646.48791504     636.01965332     625.47723389     615.67144775     617.34252930              NAN              NAN
                NAN              NAN              NAN              NAN              NAN              NAN              NAN              NAN              NAN              NAN              NAN              NAN              NAN              NAN              NAN              NAN              NAN              NAN              NAN              NAN              NAN              NAN              NAN              NAN              NAN              NAN              NAN              NAN     766.86694336     887.07739258     991.19824219     960.52301025     931.66564941     872.96447754     917.22448730     832.09161377     738.08880615     744.67065430     713.32061768     701.17468262     720.50726318     687.88458252     677.05627441     662.39556885     650.82324219     641.16253662     629.27142334     622.79473877     619.70269775              NAN              NAN
                NAN              NAN              NAN              NAN              NAN              NAN              NAN              NAN              NAN              NAN              NAN              NAN              NAN              NAN              NAN              NAN              NAN              NAN              NAN              NAN              NAN              NAN              NAN              NAN              NAN              NAN              NAN              NAN              NAN              NAN     820.60327148     966.14624023     899.45300293     873.10314941              NAN     925.43298340     884.12365723     862.07128906     778.99151611     753.63763428     735.24353027     704.57775879     685.82275391     664.42022705     669.71185303     656.51385498     638.38696289     631.91998291     624.72601318              NAN              NAN
                NAN              NAN              NAN              NAN              NAN              NAN              NAN              NAN              NAN              NAN              NAN              NAN              NAN              NAN              NAN              NAN              NAN              NAN              NAN              NAN              NAN              NAN              NAN              NAN              NAN              NAN              NAN              NAN              NAN              NAN              NAN              NAN              NAN              NAN              NAN              NAN     853.98266602     830.21563721     799.12139893     750.78045654     739.35321045     712.38842773     686.90832520     681.25000000     662.31488037     651.16094971     645.44885254              NAN              NAN              NAN              NAN
                NAN              NAN              NAN              NAN              NAN              NAN              NAN              NAN              NAN              NAN              NAN              NAN              NAN              NAN              NAN              NAN              NAN              NAN              NAN              NAN              NAN              NAN              NAN              NAN              NAN              NAN              NAN              NAN              NAN              NAN              NAN              NAN              NAN              NAN              NAN              NAN              NAN     832.41345215     829.69946289     811.21582031     804.66973877     738.81140137     700.35595703              NAN     666.16894531     660.94683838              NAN              NAN              NAN              NAN              NAN
END griddata

