# File generated by Flopy version 3.3.5 on 12/07/2022 at 13:22:42.
BEGIN options
  NOGRB
END options

BEGIN dimensions
  NLAY  1
  NROW  29
  NCOL  51
END dimensions

BEGIN griddata
  delr
    CONSTANT    1000.00000000
  delc
    CONSTANT    1000.00000000
  top
    INTERNAL  FACTOR  1.0
                NAN              NAN              NAN              NAN              NAN              NAN              NAN              NAN              NAN              NAN              NAN              NAN              NAN              NAN              NAN              NAN              NAN              NAN              NAN              NAN              NAN              NAN              NAN              NAN              NAN              NAN              NAN              NAN              NAN              NAN              NAN              NAN              NAN              NAN              NAN              NAN              NAN              NAN              NAN              NAN              NAN              NAN              NAN              NAN              NAN              NAN              NAN              NAN              NAN              NAN              NAN
                NAN              NAN              NAN              NAN              NAN              NAN              NAN              NAN              NAN              NAN     608.93164062    1029.07543945    1088.81713867    1094.62744141              NAN              NAN              NAN              NAN              NAN              NAN              NAN              NAN              NAN              NAN              NAN              NAN              NAN              NAN              NAN              NAN              NAN              NAN              NAN              NAN              NAN              NAN              NAN              NAN              NAN              NAN              NAN              NAN              NAN              NAN              NAN              NAN              NAN              NAN              NAN              NAN              NAN
                NAN              NAN              NAN              NAN              NAN              NAN              NAN              NAN    1032.30444336              NAN     905.43389893     959.48803711     983.04675293    1069.36828613    1132.18029785    1085.69360352     944.93182373     889.52636719              NAN              NAN              NAN              NAN              NAN              NAN              NAN              NAN              NAN              NAN              NAN              NAN              NAN              NAN              NAN              NAN              NAN              NAN              NAN              NAN              NAN              NAN              NAN              NAN              NAN              NAN              NAN              NAN              NAN              NAN              NAN              NAN              NAN
                NAN              NAN              NAN              NAN     602.33544922     657.98620605     807.53234863     907.64794922    1103.49804688    1073.46423340    1063.73608398     993.78790283     914.29052734     963.08605957    1065.61535645    1119.60620117    1112.32849121    1093.86547852     988.35632324    1024.66235352              NAN              NAN              NAN              NAN              NAN              NAN              NAN              NAN              NAN              NAN              NAN              NAN              NAN              NAN              NAN              NAN              NAN              NAN              NAN              NAN              NAN              NAN              NAN              NAN              NAN              NAN              NAN              NAN              NAN              NAN              NAN
                NAN              NAN              NAN     576.93231201     823.06890869     977.16760254     953.85131836    1032.43273926    1034.18041992    1095.36962891    1093.58410645    1109.42346191    1000.26678467     875.75909424     985.22076416     999.76281738    1067.26318359    1044.02758789    1086.59545898    1102.13586426    1137.76159668              NAN              NAN              NAN              NAN              NAN              NAN              NAN              NAN              NAN              NAN              NAN              NAN              NAN              NAN              NAN              NAN              NAN              NAN              NAN              NAN              NAN              NAN              NAN              NAN              NAN              NAN              NAN              NAN              NAN              NAN
                NAN              NAN              NAN     907.51672363     897.57623291     873.59136963     932.74005127     952.55023193    1029.38085938    1054.95410156    1143.42480469    1147.87231445    1058.09252930     890.07397461     853.98919678     924.04650879    1008.25885010     919.56512451     946.67138672    1024.40002441    1169.03808594    1106.15832520    1112.15502930              NAN              NAN              NAN              NAN              NAN              NAN              NAN              NAN              NAN              NAN              NAN              NAN              NAN              NAN              NAN              NAN              NAN              NAN              NAN              NAN              NAN              NAN              NAN              NAN              NAN              NAN              NAN              NAN
                NAN    1025.96166992    1030.23620605    1013.18487549     954.79968262     894.13928223     845.87957764     928.55725098    1030.47375488    1072.98535156    1080.77478027    1068.56652832    1043.05615234    1011.34320068     840.49346924     872.65258789     880.41528320     879.07366943    1016.26245117    1110.65942383    1149.27343750    1090.99450684    1096.25183105              NAN              NAN              NAN              NAN              NAN              NAN              NAN              NAN              NAN              NAN              NAN              NAN              NAN              NAN              NAN              NAN              NAN              NAN              NAN              NAN              NAN              NAN              NAN              NAN              NAN              NAN              NAN              NAN
       842.02618408     932.91564941     988.41937256    1039.83996582    1041.84570312     970.13464355     834.84320068     936.18707275    1019.00189209    1029.26049805    1042.93701172    1049.72302246    1019.88854980    1019.71032715     949.48944092     783.67785645     810.94934082     979.41870117    1108.35705566    1061.85156250    1005.69403076     899.86511230     987.09259033    1090.04724121              NAN              NAN              NAN              NAN              NAN              NAN              NAN              NAN              NAN              NAN              NAN              NAN              NAN              NAN              NAN              NAN              NAN              NAN              NAN              NAN              NAN              NAN              NAN              NAN              NAN              NAN              NAN
       704.12579346     882.81146240     894.46081543     925.85943604     938.78308105     976.04980469     851.62042236     811.75836182     884.66552734     933.63555908     987.53796387     994.59039307     915.81634521     917.58642578    1018.67291260     887.33129883     768.16894531     834.68096924    1020.32861328     995.65277100     867.48803711     814.57702637     996.21002197    1175.45019531    1123.34228516    1085.64038086     978.28503418              NAN              NAN              NAN              NAN              NAN              NAN              NAN              NAN              NAN              NAN              NAN              NAN              NAN              NAN              NAN              NAN              NAN              NAN              NAN              NAN              NAN              NAN              NAN              NAN
                NAN     716.49505615     938.44384766     879.71685791     875.11749268    1003.97882080     973.63604736     813.70434570     777.71813965     833.96228027     996.84979248     849.41619873     809.34411621     749.07623291     875.48211670     925.12774658     856.84649658     763.35961914     890.73052979     973.51855469     772.22479248     892.49908447     985.63964844    1078.87805176     920.11889648     912.62036133    1061.96032715     991.85290527              NAN              NAN              NAN              NAN              NAN              NAN              NAN              NAN              NAN              NAN              NAN              NAN              NAN              NAN              NAN              NAN              NAN              NAN              NAN              NAN              NAN              NAN              NAN
                NAN     811.81152344     995.55242920     955.59515381     834.29302979     847.44537354     936.16223145     941.13311768     848.99060059     759.84600830     805.68170166     745.22711182     727.60736084     832.56243896     742.29412842     726.33569336     763.59094238     790.10430908     733.05749512     930.22821045     762.03948975     811.73577881     999.45678711     892.61486816     792.08239746     966.89941406     994.78668213     859.63641357     931.90124512     880.38049316              NAN              NAN              NAN              NAN              NAN              NAN              NAN              NAN              NAN              NAN              NAN              NAN              NAN              NAN              NAN              NAN              NAN              NAN              NAN              NAN              NAN
                NAN     861.41192627     904.91088867     909.26892090     853.10583496     801.25280762     794.48870850     781.64221191     753.57452393     777.57800293     856.66595459     848.42340088     880.44335938    1026.23400879     974.94616699     905.80493164     720.37585449     712.43383789     704.83709717     770.06671143     729.66668701     789.83703613     866.99487305     746.26336670     906.21630859     963.72705078     967.94091797     788.46936035     831.47607422     992.92285156     947.86047363     971.32757568              NAN              NAN              NAN              NAN              NAN              NAN              NAN              NAN              NAN              NAN              NAN              NAN              NAN              NAN              NAN              NAN              NAN              NAN              NAN
       812.19274902     944.67645264     895.27862549     857.47253418     814.73864746     827.24151611     950.59484863     895.48504639     803.66955566     846.72521973     991.45166016     906.63403320     981.47644043    1037.58312988    1048.89965820    1019.99176025     851.69024658     712.78320312     709.94580078     718.22094727     695.75750732     768.08843994     771.05004883     794.16754150     962.44152832     826.10369873     966.47204590     747.54833984     752.75170898     922.44177246     765.33502197     797.97589111     843.81994629     824.86370850              NAN              NAN              NAN              NAN              NAN              NAN              NAN              NAN              NAN              NAN              NAN              NAN              NAN              NAN              NAN              NAN              NAN
       928.90124512     941.59729004     874.86694336     853.25457764     912.88824463     933.86889648     946.06573486     898.17266846     889.12042236     889.57366943     999.15197754     973.64593506     975.85974121    1019.21575928     995.80291748     878.85144043     756.61791992     827.74273682     921.19537354     727.38220215     695.13391113     699.57592773     695.14416504     753.30084229     916.21752930     761.33245850     907.17010498     722.72967529     770.64154053     922.59918213     738.78204346     746.11718750     741.36132812     836.09088135     774.60437012     811.69512939     751.03460693              NAN              NAN     753.45574951     786.80932617              NAN              NAN              NAN              NAN              NAN              NAN              NAN              NAN              NAN              NAN
       958.93103027     958.18743896     940.48748779     947.62274170    1002.99560547     999.71136475     962.24121094     993.89532471     977.50732422     965.03393555     986.70874023    1005.68804932    1020.00921631    1009.32366943     962.53607178     847.84490967     903.73211670     876.97833252     924.83776855     849.15356445     842.72119141     764.35565186     695.65185547     736.78192139     811.16064453     735.30230713     880.97625732     703.94824219     787.58691406     920.06591797     715.62213135     703.34271240     723.28253174     768.25805664     716.59442139     731.59283447     732.29418945     726.51989746     726.20214844     721.08728027     751.30511475     730.74444580     757.14416504     734.01763916              NAN              NAN              NAN              NAN              NAN              NAN              NAN
       921.27752686    1011.99554443     970.21807861     985.84942627    1008.76086426    1009.13531494     998.21893311     991.82897949     999.35382080    1011.97064209    1012.49493408    1052.05078125    1014.72406006     974.86737061     942.59637451     893.74145508     947.22546387     964.77630615     996.84271240     942.69476318     799.84942627     691.67346191     674.04864502     677.71905518     678.35894775     685.34234619     724.62603760     684.45410156     724.78393555     808.20196533     684.09228516     723.93737793     828.77630615     752.59411621     694.05511475     711.38739014     702.28405762     717.62005615     698.58001709     698.71173096     709.77069092     706.80511475     735.62500000     784.37811279     770.98144531              NAN              NAN              NAN              NAN              NAN              NAN
                NAN              NAN     978.19647217    1004.40460205              NAN              NAN              NAN              NAN              NAN              NAN              NAN              NAN    1014.87280273     984.70214844     957.57208252     967.83648682     984.92266846     974.65820312     960.35803223     883.72888184     843.00854492     710.27978516     758.34802246     789.02081299     682.80816650     666.56628418     660.41168213     660.89196777     659.93243408     664.95361328     668.45886230     697.73529053     836.26068115     740.06878662     681.14770508     687.33636475     738.50439453     706.97143555     687.77191162     679.15924072     682.87719727     698.59863281     733.30346680     722.61022949     684.52770996     676.05126953     724.23925781     699.83386230     672.76049805              NAN              NAN
                NAN              NAN              NAN              NAN              NAN              NAN              NAN              NAN              NAN              NAN              NAN              NAN              NAN              NAN              NAN     961.39691162     993.57312012     961.73883057     861.11059570     770.46368408     749.43109131     756.18334961     787.85797119     883.53967285     727.81805420     691.54931641     682.03826904     716.21295166     730.93127441     665.04852295     651.42309570     655.67230225     792.52813721     797.77697754     670.84179688     739.57122803     760.53350830     702.04913330     727.95806885     673.15148926     680.80328369     701.48248291     696.08422852     695.98248291     658.14288330     664.73455811     727.38049316     687.84942627     679.16589355              NAN              NAN
                NAN              NAN              NAN              NAN              NAN              NAN              NAN              NAN              NAN              NAN              NAN              NAN              NAN              NAN              NAN              NAN    1051.22509766     918.60235596     827.19372559     859.47619629     802.30548096     791.52191162     882.81103516     853.32830811     745.32281494     768.91192627     763.86254883     725.33563232     721.38494873     715.70379639     715.56127930     653.51843262     693.23089600     680.96350098     659.65563965     660.43505859     660.90722656     672.96099854     742.06658936     669.86883545     664.40899658     667.21893311     687.83508301     667.36096191     644.36254883     653.53472900     689.11798096     676.83801270     693.70989990     669.74774170              NAN
                NAN              NAN              NAN              NAN              NAN              NAN              NAN              NAN              NAN              NAN              NAN              NAN              NAN              NAN              NAN              NAN     979.77734375     989.34576416     944.87597656     939.85913086     885.90161133     845.23297119     947.44793701     892.29565430     784.21600342     797.55279541     812.93109131     835.23352051     802.68023682     739.99969482     690.18603516     657.70404053     648.72491455     647.54846191     646.67236328     648.23669434     643.83392334     646.35894775     716.89825439     660.91973877     678.43890381     655.21203613     660.28753662     643.27551270     633.70751953     638.37347412     649.25555420     657.95507812     688.01617432     681.97491455     673.67022705
                NAN              NAN              NAN              NAN              NAN              NAN              NAN              NAN              NAN              NAN              NAN              NAN              NAN              NAN              NAN              NAN              NAN              NAN              NAN              NAN     961.58337402    1023.09185791     998.68591309     849.18627930     792.90911865     806.08007812     829.33807373     750.62017822     708.27880859     710.85211182     691.79364014     669.37451172     665.84027100     655.21954346     658.31390381     737.79864502     664.89898682     640.05029297     643.76654053     644.33642578     674.62750244     643.04895020     634.38531494     628.56286621     625.21221924     629.99841309     640.01672363     647.22674561     655.37365723     693.38415527     686.88903809
                NAN              NAN              NAN              NAN              NAN              NAN              NAN              NAN              NAN              NAN              NAN              NAN              NAN              NAN              NAN              NAN              NAN              NAN              NAN              NAN              NAN              NAN              NAN     882.20867920     900.43847656     839.17968750     780.03973389     743.57208252     717.90716553     786.08410645     719.84747314     724.30548096     681.13177490     681.06610107     684.65643311     678.99163818     662.13372803     646.52032471     637.15997314     635.43524170     637.27435303     629.24182129     634.16186523     670.46862793     632.20520020     622.92840576     630.24768066     636.09954834     650.13427734     723.24853516     698.45764160
                NAN              NAN              NAN              NAN              NAN              NAN              NAN              NAN              NAN              NAN              NAN              NAN              NAN              NAN              NAN              NAN              NAN              NAN              NAN              NAN              NAN              NAN              NAN              NAN     853.54119873     881.57751465     873.74603271     797.14471436     764.29315186     828.36236572     786.78668213     717.70526123     753.70422363     739.72015381     703.52447510     698.18249512     675.61273193     660.82226562     656.32342529     656.42742920     644.52850342     642.05603027     681.19250488     662.44140625     636.16156006     624.31634521     621.65270996     626.58044434     638.96130371     661.45733643     666.52618408
                NAN              NAN              NAN              NAN              NAN              NAN              NAN              NAN              NAN              NAN              NAN              NAN              NAN              NAN              NAN              NAN              NAN              NAN              NAN              NAN              NAN              NAN              NAN              NAN              NAN              NAN     856.73199463     873.64849854     829.32904053     851.43206787     831.56359863     741.61370850     787.09417725     760.25311279     753.89538574     714.96923828     688.14489746     665.92364502     666.34234619     669.87182617     659.49639893     674.39178467     684.48236084     667.07019043     661.53948975     636.14544678     624.58178711     619.13732910     629.96496582     636.24603271              NAN
                NAN              NAN              NAN              NAN              NAN              NAN              NAN              NAN              NAN              NAN              NAN              NAN              NAN              NAN              NAN              NAN              NAN              NAN              NAN              NAN              NAN              NAN              NAN              NAN              NAN              NAN              NAN              NAN     872.19970703     878.98211670     894.58044434     786.87194824     861.53680420     820.32586670     873.91156006     735.38330078     693.93762207     692.89154053     682.48284912     682.12164307     676.96936035     679.62573242     674.99127197     663.30914307     648.48791504     638.01965332     627.47723389     617.67144775     619.34252930              NAN              NAN
                NAN              NAN              NAN              NAN              NAN              NAN              NAN              NAN              NAN              NAN              NAN              NAN              NAN              NAN              NAN              NAN              NAN              NAN              NAN              NAN              NAN              NAN              NAN              NAN              NAN              NAN              NAN              NAN     768.86694336     889.07739258     993.19824219     962.52301025     933.66564941     874.96447754     919.22448730     834.09161377     740.08880615     746.67065430     715.32061768     703.17468262     722.50726318     689.88458252     679.05627441     664.39556885     652.82324219     643.16253662     631.27142334     624.79473877     621.70269775              NAN              NAN
                NAN              NAN              NAN              NAN              NAN              NAN              NAN              NAN              NAN              NAN              NAN              NAN              NAN              NAN              NAN              NAN              NAN              NAN              NAN              NAN              NAN              NAN              NAN              NAN              NAN              NAN              NAN              NAN              NAN              NAN     822.60327148     968.14624023     901.45300293     875.10314941              NAN     927.43298340     886.12365723     864.07128906     780.99151611     755.63763428     737.24353027     706.57775879     687.82275391     666.42022705     671.71185303     658.51385498     640.38696289     633.91998291     626.72601318              NAN              NAN
                NAN              NAN              NAN              NAN              NAN              NAN              NAN              NAN              NAN              NAN              NAN              NAN              NAN              NAN              NAN              NAN              NAN              NAN              NAN              NAN              NAN              NAN              NAN              NAN              NAN              NAN              NAN              NAN              NAN              NAN              NAN              NAN              NAN              NAN              NAN              NAN     855.98266602     832.21563721     801.12139893     752.78045654     741.35321045     714.38842773     688.90832520     683.25000000     664.31488037     653.16094971     647.44885254              NAN              NAN              NAN              NAN
                NAN              NAN              NAN              NAN              NAN              NAN              NAN              NAN              NAN              NAN              NAN              NAN              NAN              NAN              NAN              NAN              NAN              NAN              NAN              NAN              NAN              NAN              NAN              NAN              NAN              NAN              NAN              NAN              NAN              NAN              NAN              NAN              NAN              NAN              NAN              NAN              NAN     834.41345215     831.69946289     813.21582031     806.66973877     740.81140137     702.35595703              NAN     668.16894531     662.94683838              NAN              NAN              NAN              NAN              NAN
  botm
    INTERNAL  FACTOR  1.0
                NAN              NAN              NAN              NAN              NAN              NAN              NAN              NAN              NAN              NAN              NAN              NAN              NAN              NAN              NAN              NAN              NAN              NAN              NAN              NAN              NAN              NAN              NAN              NAN              NAN              NAN              NAN              NAN              NAN              NAN              NAN              NAN              NAN              NAN              NAN              NAN              NAN              NAN              NAN              NAN              NAN              NAN              NAN              NAN              NAN              NAN              NAN              NAN              NAN              NAN              NAN
                NAN              NAN              NAN              NAN              NAN              NAN              NAN              NAN              NAN              NAN     508.93164062     929.07543945     988.81713867     994.62744141              NAN              NAN              NAN              NAN              NAN              NAN              NAN              NAN              NAN              NAN              NAN              NAN              NAN              NAN              NAN              NAN              NAN              NAN              NAN              NAN              NAN              NAN              NAN              NAN              NAN              NAN              NAN              NAN              NAN              NAN              NAN              NAN              NAN              NAN              NAN              NAN              NAN
                NAN              NAN              NAN              NAN              NAN              NAN              NAN              NAN     932.30444336              NAN     805.43389893     859.48803711     883.04675293     969.36828613    1032.18029785     985.69360352     844.93182373     789.52636719              NAN              NAN              NAN              NAN              NAN              NAN              NAN              NAN              NAN              NAN              NAN              NAN              NAN              NAN              NAN              NAN              NAN              NAN              NAN              NAN              NAN              NAN              NAN              NAN              NAN              NAN              NAN              NAN              NAN              NAN              NAN              NAN              NAN
                NAN              NAN              NAN              NAN     502.33544922     557.98620605     707.53234863     807.64794922    1003.49804688     973.46423340     963.73608398     893.78790283     814.29052734     863.08605957     965.61535645    1019.60620117    1012.32849121     993.86547852     888.35632324     924.66235352              NAN              NAN              NAN              NAN              NAN              NAN              NAN              NAN              NAN              NAN              NAN              NAN              NAN              NAN              NAN              NAN              NAN              NAN              NAN              NAN              NAN              NAN              NAN              NAN              NAN              NAN              NAN              NAN              NAN              NAN              NAN
                NAN              NAN              NAN     476.93231201     723.06890869     877.16760254     853.85131836     932.43273926     934.18041992     995.36962891     993.58410645    1009.42346191     900.26678467     775.75909424     885.22076416     899.76281738     967.26318359     944.02758789     986.59545898    1002.13586426    1037.76159668              NAN              NAN              NAN              NAN              NAN              NAN              NAN              NAN              NAN              NAN              NAN              NAN              NAN              NAN              NAN              NAN              NAN              NAN              NAN              NAN              NAN              NAN              NAN              NAN              NAN              NAN              NAN              NAN              NAN              NAN