# File generated by Flopy version 3.3.5 on 12/07/2022 at 13:22:42.
BEGIN options
  COMPLEXITY  simple
END options

BEGIN linear
  LINEAR_ACCELERATION  bicgstab
END linear

