# File generated by Flopy version 3.3.5 on 12/07/2022 at 13:22:42.
BEGIN options
  NEWTON  UNDER_RELAXATION
END options

BEGIN packages
  DIS6  .\TRANSIENT.dis  dis
  IC6  .\TRANSIENT.ic  ic
  NPF6  .\TRANSIENT.npf  npf
  OC6  .\TRANSIENT.oc  oc
  STO6  .\TRANSIENT.sto  sto
  RCH6  .\TRANSIENT.rch  rch_0
  WEL6  .\TRANSIENT.wel  wel_0
  DRN6  .\TRANSIENT.drn  drn_0
END packages

